New Load.load_p17ulv6263_1 conn=wye bus1=p17ulv6263.1 kV=0.12 Vminpu=0.8 Vmaxpu=1.2 model=1 kW=3.803511301255774 kvar=0.9510694359540136 Phases=1 yearly=res_kw_839_pu

New Load.load_p17ulv6263_2 conn=wye bus1=p17ulv6263.2 kV=0.12 Vminpu=0.8 Vmaxpu=1.2 model=1 kW=3.803511301255774 kvar=0.9510694359540136 Phases=1 yearly=res_kw_839_pu

New Load.load_p17ulv6266_1 conn=wye bus1=p17ulv6266.1 kV=0.12 Vminpu=0.8 Vmaxpu=1.2 model=1 kW=2.2116292327094182 kvar=0.9176098578127687 Phases=1 yearly=res_kw_2736_pu

New Load.load_p17ulv6266_2 conn=wye bus1=p17ulv6266.2 kV=0.12 Vminpu=0.8 Vmaxpu=1.2 model=1 kW=2.2116292327094182 kvar=0.9176098578127687 Phases=1 yearly=res_kw_2736_pu

New Load.load_p17ulv6284_1 conn=wye bus1=p17ulv6284.1 kV=0.12 Vminpu=0.8 Vmaxpu=1.2 model=1 kW=6.444134169671828 kvar=1.6968703714746447 Phases=1 yearly=res_kw_5946_pu

New Load.load_p17ulv6284_2 conn=wye bus1=p17ulv6284.2 kV=0.12 Vminpu=0.8 Vmaxpu=1.2 model=1 kW=6.444134169671828 kvar=1.6968703714746447 Phases=1 yearly=res_kw_5946_pu

New Load.load_p17ulv6296_1 conn=wye bus1=p17ulv6296.1 kV=0.12 Vminpu=0.8 Vmaxpu=1.2 model=1 kW=6.4634894949111095 kvar=1.3903314868472842 Phases=1 yearly=res_kw_10915_pu

New Load.load_p17ulv6296_2 conn=wye bus1=p17ulv6296.2 kV=0.12 Vminpu=0.8 Vmaxpu=1.2 model=1 kW=6.4634894949111095 kvar=1.3903314868472842 Phases=1 yearly=res_kw_10915_pu

New Load.load_p17ulv6298_1 conn=wye bus1=p17ulv6298.1 kV=0.12 Vminpu=0.8 Vmaxpu=1.2 model=1 kW=3.7213995443715153 kvar=1.2127285241033383 Phases=1 yearly=res_kw_7181_pu

New Load.load_p17ulv6298_2 conn=wye bus1=p17ulv6298.2 kV=0.12 Vminpu=0.8 Vmaxpu=1.2 model=1 kW=3.7213995443715153 kvar=1.2127285241033383 Phases=1 yearly=res_kw_7181_pu

New Load.load_p17ulv6307_1 conn=wye bus1=p17ulv6307.1 kV=0.12 Vminpu=0.8 Vmaxpu=1.2 model=1 kW=3.9074383092133864 kvar=0.08385670317934282 Phases=1 yearly=res_kw_6166_pu

New Load.load_p17ulv6307_2 conn=wye bus1=p17ulv6307.2 kV=0.12 Vminpu=0.8 Vmaxpu=1.2 model=1 kW=3.9074383092133864 kvar=0.08385670317934282 Phases=1 yearly=res_kw_6166_pu

New Load.load_p17ulv6309_1 conn=wye bus1=p17ulv6309.1 kV=0.12 Vminpu=0.8 Vmaxpu=1.2 model=1 kW=2.8201644654173412 kvar=1.4153474184424584 Phases=1 yearly=res_kw_8369_pu

New Load.load_p17ulv6309_2 conn=wye bus1=p17ulv6309.2 kV=0.12 Vminpu=0.8 Vmaxpu=1.2 model=1 kW=2.8201644654173412 kvar=1.4153474184424584 Phases=1 yearly=res_kw_8369_pu

New Load.load_p17ulv6322_1 conn=wye bus1=p17ulv6322.1 kV=0.12 Vminpu=0.8 Vmaxpu=1.2 model=1 kW=1.9050136773687008 kvar=0.6862276755285426 Phases=1 yearly=res_kw_442_pu

New Load.load_p17ulv6322_2 conn=wye bus1=p17ulv6322.2 kV=0.12 Vminpu=0.8 Vmaxpu=1.2 model=1 kW=1.9050136773687008 kvar=0.6862276755285426 Phases=1 yearly=res_kw_442_pu

New Load.load_p17ulv6327_1 conn=wye bus1=p17ulv6327.1 kV=0.12 Vminpu=0.8 Vmaxpu=1.2 model=1 kW=2.045719075567761 kvar=0.5768579687141782 Phases=1 yearly=res_kw_11512_pu

New Load.load_p17ulv6327_2 conn=wye bus1=p17ulv6327.2 kV=0.12 Vminpu=0.8 Vmaxpu=1.2 model=1 kW=2.045719075567761 kvar=0.5768579687141782 Phases=1 yearly=res_kw_11512_pu

New Load.load_p17ulv6336_1 conn=wye bus1=p17ulv6336.1 kV=0.12 Vminpu=0.8 Vmaxpu=1.2 model=1 kW=3.163532585010919 kvar=0.2110868081047307 Phases=1 yearly=res_kw_13175_pu

New Load.load_p17ulv6336_2 conn=wye bus1=p17ulv6336.2 kV=0.12 Vminpu=0.8 Vmaxpu=1.2 model=1 kW=3.163532585010919 kvar=0.2110868081047307 Phases=1 yearly=res_kw_13175_pu

New Load.load_p17ulv6367_1 conn=wye bus1=p17ulv6367.1 kV=0.12 Vminpu=0.8 Vmaxpu=1.2 model=1 kW=2.314954210015221 kvar=1.106584285278311 Phases=1 yearly=res_kw_48_pu

New Load.load_p17ulv6367_2 conn=wye bus1=p17ulv6367.2 kV=0.12 Vminpu=0.8 Vmaxpu=1.2 model=1 kW=2.314954210015221 kvar=1.106584285278311 Phases=1 yearly=res_kw_48_pu

New Load.load_p17ulv6376_1 conn=wye bus1=p17ulv6376.1 kV=0.12 Vminpu=0.8 Vmaxpu=1.2 model=1 kW=6.029340317181467 kvar=0.8428650524659024 Phases=1 yearly=res_kw_7631_pu

New Load.load_p17ulv6376_2 conn=wye bus1=p17ulv6376.2 kV=0.12 Vminpu=0.8 Vmaxpu=1.2 model=1 kW=6.029340317181467 kvar=0.8428650524659024 Phases=1 yearly=res_kw_7631_pu

New Load.load_p17ulv6405_1 conn=wye bus1=p17ulv6405.1 kV=0.12 Vminpu=0.8 Vmaxpu=1.2 model=1 kW=3.045651806347894 kvar=0.4278835496708535 Phases=1 yearly=res_kw_742_pu

New Load.load_p17ulv6405_2 conn=wye bus1=p17ulv6405.2 kV=0.12 Vminpu=0.8 Vmaxpu=1.2 model=1 kW=3.045651806347894 kvar=0.4278835496708535 Phases=1 yearly=res_kw_742_pu

New Load.load_p17ulv6411_1 conn=wye bus1=p17ulv6411.1 kV=0.12 Vminpu=0.8 Vmaxpu=1.2 model=1 kW=3.2478141049679135 kvar=1.1674904307651393 Phases=1 yearly=res_kw_7476_pu

New Load.load_p17ulv6411_2 conn=wye bus1=p17ulv6411.2 kV=0.12 Vminpu=0.8 Vmaxpu=1.2 model=1 kW=3.2478141049679135 kvar=1.1674904307651393 Phases=1 yearly=res_kw_7476_pu

New Load.load_p17ulv6414_1 conn=wye bus1=p17ulv6414.1 kV=0.12 Vminpu=0.8 Vmaxpu=1.2 model=1 kW=2.0240502132333855 kvar=0.5295456567023789 Phases=1 yearly=res_kw_10487_pu

New Load.load_p17ulv6414_2 conn=wye bus1=p17ulv6414.2 kV=0.12 Vminpu=0.8 Vmaxpu=1.2 model=1 kW=2.0240502132333855 kvar=0.5295456567023789 Phases=1 yearly=res_kw_10487_pu

New Load.load_p17ulv6416_1 conn=wye bus1=p17ulv6416.1 kV=0.12 Vminpu=0.8 Vmaxpu=1.2 model=1 kW=4.8009328676351295 kvar=1.552027446513024 Phases=1 yearly=res_kw_2882_pu

New Load.load_p17ulv6416_2 conn=wye bus1=p17ulv6416.2 kV=0.12 Vminpu=0.8 Vmaxpu=1.2 model=1 kW=4.8009328676351295 kvar=1.552027446513024 Phases=1 yearly=res_kw_2882_pu

New Load.load_p17ulv6427_1 conn=wye bus1=p17ulv6427.1 kV=0.12 Vminpu=0.8 Vmaxpu=1.2 model=1 kW=2.420833334058086 kvar=0.7706826280690459 Phases=1 yearly=res_kw_4011_pu

New Load.load_p17ulv6427_2 conn=wye bus1=p17ulv6427.2 kV=0.12 Vminpu=0.8 Vmaxpu=1.2 model=1 kW=2.420833334058086 kvar=0.7706826280690459 Phases=1 yearly=res_kw_4011_pu

New Load.load_p17ulv6430_1 conn=wye bus1=p17ulv6430.1 kV=0.12 Vminpu=0.8 Vmaxpu=1.2 model=1 kW=3.283752349161772 kvar=1.1583018658461228 Phases=1 yearly=res_kw_4012_pu

New Load.load_p17ulv6430_2 conn=wye bus1=p17ulv6430.2 kV=0.12 Vminpu=0.8 Vmaxpu=1.2 model=1 kW=3.283752349161772 kvar=1.1583018658461228 Phases=1 yearly=res_kw_4012_pu

New Load.load_p17ulv6431_1 conn=wye bus1=p17ulv6431.1 kV=0.12 Vminpu=0.8 Vmaxpu=1.2 model=1 kW=3.7914320470728176 kvar=1.2231079788227288 Phases=1 yearly=res_kw_1829_pu

New Load.load_p17ulv6431_2 conn=wye bus1=p17ulv6431.2 kV=0.12 Vminpu=0.8 Vmaxpu=1.2 model=1 kW=3.7914320470728176 kvar=1.2231079788227288 Phases=1 yearly=res_kw_1829_pu

New Load.load_p17ulv6434_1 conn=wye bus1=p17ulv6434.1 kV=0.12 Vminpu=0.8 Vmaxpu=1.2 model=1 kW=3.8980867553392065 kvar=0.3909218316978601 Phases=1 yearly=res_kw_9045_pu

New Load.load_p17ulv6434_2 conn=wye bus1=p17ulv6434.2 kV=0.12 Vminpu=0.8 Vmaxpu=1.2 model=1 kW=3.8980867553392065 kvar=0.3909218316978601 Phases=1 yearly=res_kw_9045_pu

New Load.load_p17ulv6439_1 conn=wye bus1=p17ulv6439.1 kV=0.12 Vminpu=0.8 Vmaxpu=1.2 model=1 kW=14.513424092217596 kvar=2.3726586674003918 Phases=1 yearly=res_kw_6087_pu

New Load.load_p17ulv6439_2 conn=wye bus1=p17ulv6439.2 kV=0.12 Vminpu=0.8 Vmaxpu=1.2 model=1 kW=14.513424092217596 kvar=2.3726586674003918 Phases=1 yearly=res_kw_6087_pu

New Load.load_p17ulv6470_1 conn=wye bus1=p17ulv6470.1 kV=0.12 Vminpu=0.8 Vmaxpu=1.2 model=1 kW=3.7003032177376367 kvar=1.110524272312029 Phases=1 yearly=res_kw_5610_pu

New Load.load_p17ulv6470_2 conn=wye bus1=p17ulv6470.2 kV=0.12 Vminpu=0.8 Vmaxpu=1.2 model=1 kW=3.7003032177376367 kvar=1.110524272312029 Phases=1 yearly=res_kw_5610_pu

New Load.load_p17ulv6471_1 conn=wye bus1=p17ulv6471.1 kV=0.12 Vminpu=0.8 Vmaxpu=1.2 model=1 kW=2.2816928104449037 kvar=0.4107329194522798 Phases=1 yearly=res_kw_4327_pu

New Load.load_p17ulv6471_2 conn=wye bus1=p17ulv6471.2 kV=0.12 Vminpu=0.8 Vmaxpu=1.2 model=1 kW=2.2816928104449037 kvar=0.4107329194522798 Phases=1 yearly=res_kw_4327_pu

New Load.load_p17ulv6478_1 conn=wye bus1=p17ulv6478.1 kV=0.12 Vminpu=0.8 Vmaxpu=1.2 model=1 kW=2.213897176553902 kvar=0.8879753231497963 Phases=1 yearly=res_kw_6308_pu

New Load.load_p17ulv6478_2 conn=wye bus1=p17ulv6478.2 kV=0.12 Vminpu=0.8 Vmaxpu=1.2 model=1 kW=2.213897176553902 kvar=0.8879753231497963 Phases=1 yearly=res_kw_6308_pu

New Load.load_p17ulv6482_1 conn=wye bus1=p17ulv6482.1 kV=0.12 Vminpu=0.8 Vmaxpu=1.2 model=1 kW=2.0240502132333855 kvar=0.5295456567023789 Phases=1 yearly=res_kw_10487_pu

New Load.load_p17ulv6482_2 conn=wye bus1=p17ulv6482.2 kV=0.12 Vminpu=0.8 Vmaxpu=1.2 model=1 kW=2.0240502132333855 kvar=0.5295456567023789 Phases=1 yearly=res_kw_10487_pu

New Load.load_p17ulv6493_1 conn=wye bus1=p17ulv6493.1 kV=0.12 Vminpu=0.8 Vmaxpu=1.2 model=1 kW=2.1655866313554135 kvar=1.0497324251771207 Phases=1 yearly=res_kw_13931_pu

New Load.load_p17ulv6493_2 conn=wye bus1=p17ulv6493.2 kV=0.12 Vminpu=0.8 Vmaxpu=1.2 model=1 kW=2.1655866313554135 kvar=1.0497324251771207 Phases=1 yearly=res_kw_13931_pu

New Load.load_p17ulv6512_1 conn=wye bus1=p17ulv6512.1 kV=0.12 Vminpu=0.8 Vmaxpu=1.2 model=1 kW=2.2332898223393483 kvar=0.8287577917098732 Phases=1 yearly=res_kw_2345_pu

New Load.load_p17ulv6512_2 conn=wye bus1=p17ulv6512.2 kV=0.12 Vminpu=0.8 Vmaxpu=1.2 model=1 kW=2.2332898223393483 kvar=0.8287577917098732 Phases=1 yearly=res_kw_2345_pu

New Load.load_p17ulv6516_1 conn=wye bus1=p17ulv6516.1 kV=0.12 Vminpu=0.8 Vmaxpu=1.2 model=1 kW=1.799969889792979 kvar=0.7055837837850989 Phases=1 yearly=res_kw_3219_pu

New Load.load_p17ulv6516_2 conn=wye bus1=p17ulv6516.2 kV=0.12 Vminpu=0.8 Vmaxpu=1.2 model=1 kW=1.799969889792979 kvar=0.7055837837850989 Phases=1 yearly=res_kw_3219_pu

New Load.load_p17ulv6532_1 conn=wye bus1=p17ulv6532.1 kV=0.12 Vminpu=0.8 Vmaxpu=1.2 model=1 kW=4.709076706416643 kvar=0.09250802079027616 Phases=1 yearly=res_kw_8820_pu

New Load.load_p17ulv6532_2 conn=wye bus1=p17ulv6532.2 kV=0.12 Vminpu=0.8 Vmaxpu=1.2 model=1 kW=4.709076706416643 kvar=0.09250802079027616 Phases=1 yearly=res_kw_8820_pu

New Load.load_p17ulv6535_1 conn=wye bus1=p17ulv6535.1 kV=0.12 Vminpu=0.8 Vmaxpu=1.2 model=1 kW=3.460395323670255 kvar=0.4585736120679708 Phases=1 yearly=res_kw_1463_pu

New Load.load_p17ulv6535_2 conn=wye bus1=p17ulv6535.2 kV=0.12 Vminpu=0.8 Vmaxpu=1.2 model=1 kW=3.460395323670255 kvar=0.4585736120679708 Phases=1 yearly=res_kw_1463_pu

New Load.load_p17ulv6568_1 conn=wye bus1=p17ulv6568.1 kV=0.12 Vminpu=0.8 Vmaxpu=1.2 model=1 kW=1.973294008113488 kvar=0.1951315698321081 Phases=1 yearly=res_kw_13866_pu

New Load.load_p17ulv6568_2 conn=wye bus1=p17ulv6568.2 kV=0.12 Vminpu=0.8 Vmaxpu=1.2 model=1 kW=1.973294008113488 kvar=0.1951315698321081 Phases=1 yearly=res_kw_13866_pu

New Load.load_p17ulv6574_1 conn=wye bus1=p17ulv6574.1 kV=0.12 Vminpu=0.8 Vmaxpu=1.2 model=1 kW=6.966288704933137 kvar=0.09171044022559441 Phases=1 yearly=res_kw_2514_pu

New Load.load_p17ulv6574_2 conn=wye bus1=p17ulv6574.2 kV=0.12 Vminpu=0.8 Vmaxpu=1.2 model=1 kW=6.966288704933137 kvar=0.09171044022559441 Phases=1 yearly=res_kw_2514_pu

New Load.load_p17ulv6582_1 conn=wye bus1=p17ulv6582.1 kV=0.12 Vminpu=0.8 Vmaxpu=1.2 model=1 kW=1.2499573396933334 kvar=0.5438089670556842 Phases=1 yearly=res_kw_14470_pu

New Load.load_p17ulv6582_2 conn=wye bus1=p17ulv6582.2 kV=0.12 Vminpu=0.8 Vmaxpu=1.2 model=1 kW=1.2499573396933334 kvar=0.5438089670556842 Phases=1 yearly=res_kw_14470_pu

New Load.load_p17ulv6586_1 conn=wye bus1=p17ulv6586.1 kV=0.12 Vminpu=0.8 Vmaxpu=1.2 model=1 kW=3.625319777434352 kvar=0.6268673114222736 Phases=1 yearly=res_kw_8349_pu

New Load.load_p17ulv6586_2 conn=wye bus1=p17ulv6586.2 kV=0.12 Vminpu=0.8 Vmaxpu=1.2 model=1 kW=3.625319777434352 kvar=0.6268673114222736 Phases=1 yearly=res_kw_8349_pu

New Load.load_p17ulv6590_1 conn=wye bus1=p17ulv6590.1 kV=0.12 Vminpu=0.8 Vmaxpu=1.2 model=1 kW=2.420833334058086 kvar=0.7706826280690459 Phases=1 yearly=res_kw_4011_pu

New Load.load_p17ulv6590_2 conn=wye bus1=p17ulv6590.2 kV=0.12 Vminpu=0.8 Vmaxpu=1.2 model=1 kW=2.420833334058086 kvar=0.7706826280690459 Phases=1 yearly=res_kw_4011_pu

New Load.load_p17ulv6604_1 conn=wye bus1=p17ulv6604.1 kV=0.12 Vminpu=0.8 Vmaxpu=1.2 model=1 kW=3.283752349161772 kvar=1.1583018658461228 Phases=1 yearly=res_kw_4012_pu

New Load.load_p17ulv6604_2 conn=wye bus1=p17ulv6604.2 kV=0.12 Vminpu=0.8 Vmaxpu=1.2 model=1 kW=3.283752349161772 kvar=1.1583018658461228 Phases=1 yearly=res_kw_4012_pu

New Load.load_p17ulv6605_1 conn=wye bus1=p17ulv6605.1 kV=0.12 Vminpu=0.8 Vmaxpu=1.2 model=1 kW=2.056249788676963 kvar=0.46663181946825727 Phases=1 yearly=res_kw_2369_pu

New Load.load_p17ulv6605_2 conn=wye bus1=p17ulv6605.2 kV=0.12 Vminpu=0.8 Vmaxpu=1.2 model=1 kW=2.056249788676963 kvar=0.46663181946825727 Phases=1 yearly=res_kw_2369_pu

New Load.load_p17ulv6621_1 conn=wye bus1=p17ulv6621.1 kV=0.12 Vminpu=0.8 Vmaxpu=1.2 model=1 kW=6.444148526058037 kvar=1.4281222261364703 Phases=1 yearly=res_kw_6056_pu

New Load.load_p17ulv6621_2 conn=wye bus1=p17ulv6621.2 kV=0.12 Vminpu=0.8 Vmaxpu=1.2 model=1 kW=6.444148526058037 kvar=1.4281222261364703 Phases=1 yearly=res_kw_6056_pu

New Load.load_p17ulv6649_1 conn=wye bus1=p17ulv6649.1 kV=0.12 Vminpu=0.8 Vmaxpu=1.2 model=1 kW=2.9233060787231575 kvar=1.431469772224645 Phases=1 yearly=res_kw_5155_pu

New Load.load_p17ulv6649_2 conn=wye bus1=p17ulv6649.2 kV=0.12 Vminpu=0.8 Vmaxpu=1.2 model=1 kW=2.9233060787231575 kvar=1.431469772224645 Phases=1 yearly=res_kw_5155_pu

New Load.load_p17ulv6686_1 conn=wye bus1=p17ulv6686.1 kV=0.12 Vminpu=0.8 Vmaxpu=1.2 model=1 kW=1.7684532076448627 kvar=0.7534217786639859 Phases=1 yearly=res_kw_1517_pu

New Load.load_p17ulv6686_2 conn=wye bus1=p17ulv6686.2 kV=0.12 Vminpu=0.8 Vmaxpu=1.2 model=1 kW=1.7684532076448627 kvar=0.7534217786639859 Phases=1 yearly=res_kw_1517_pu

New Load.load_p17ulv7000_1 conn=wye bus1=p17ulv7000.1 kV=0.12 Vminpu=0.8 Vmaxpu=1.2 model=1 kW=6.089998452302163 kvar=1.6419742137235034 Phases=1 yearly=com_kw_29251_pu

New Load.load_p17ulv7000_2 conn=wye bus1=p17ulv7000.2 kV=0.12 Vminpu=0.8 Vmaxpu=1.2 model=1 kW=6.089998452302163 kvar=1.6419742137235034 Phases=1 yearly=com_kw_29251_pu

New Load.load_p17ulv11207_1 conn=wye bus1=p17ulv11207.1 kV=0.12 Vminpu=0.8 Vmaxpu=1.2 model=1 kW=3.976144713547586 kvar=1.2330713976936172 Phases=1 yearly=res_kw_13253_pu

New Load.load_p17ulv11207_2 conn=wye bus1=p17ulv11207.2 kV=0.12 Vminpu=0.8 Vmaxpu=1.2 model=1 kW=3.976144713547586 kvar=1.2330713976936172 Phases=1 yearly=res_kw_13253_pu

New Load.load_p17ulv11208_1 conn=wye bus1=p17ulv11208.1 kV=0.12 Vminpu=0.8 Vmaxpu=1.2 model=1 kW=0.32326122222155235 kvar=0.21388010774407398 Phases=1 yearly=res_kw_10740_pu

New Load.load_p17ulv11208_2 conn=wye bus1=p17ulv11208.2 kV=0.12 Vminpu=0.8 Vmaxpu=1.2 model=1 kW=0.32326122222155235 kvar=0.21388010774407398 Phases=1 yearly=res_kw_10740_pu

New Load.load_p17ulv11209_1 conn=wye bus1=p17ulv11209.1 kV=0.12 Vminpu=0.8 Vmaxpu=1.2 model=1 kW=4.265177721835483 kvar=0.8142683596244107 Phases=1 yearly=res_kw_8073_pu

New Load.load_p17ulv11209_2 conn=wye bus1=p17ulv11209.2 kV=0.12 Vminpu=0.8 Vmaxpu=1.2 model=1 kW=4.265177721835483 kvar=0.8142683596244107 Phases=1 yearly=res_kw_8073_pu

New Load.load_p17ulv11210_1 conn=wye bus1=p17ulv11210.1 kV=0.12 Vminpu=0.8 Vmaxpu=1.2 model=1 kW=4.666791013286256 kvar=1.1771872459147903 Phases=1 yearly=res_kw_13338_pu

New Load.load_p17ulv11210_2 conn=wye bus1=p17ulv11210.2 kV=0.12 Vminpu=0.8 Vmaxpu=1.2 model=1 kW=4.666791013286256 kvar=1.1771872459147903 Phases=1 yearly=res_kw_13338_pu

New Load.load_p17ulv11211_1 conn=wye bus1=p17ulv11211.1 kV=0.12 Vminpu=0.8 Vmaxpu=1.2 model=1 kW=3.436124603620977 kvar=0.16563474326713715 Phases=1 yearly=res_kw_3092_pu

New Load.load_p17ulv11211_2 conn=wye bus1=p17ulv11211.2 kV=0.12 Vminpu=0.8 Vmaxpu=1.2 model=1 kW=3.436124603620977 kvar=0.16563474326713715 Phases=1 yearly=res_kw_3092_pu

New Load.load_p17ulv11220_1 conn=wye bus1=p17ulv11220.1 kV=0.12 Vminpu=0.8 Vmaxpu=1.2 model=1 kW=1.6787856041941829 kvar=0.74481557250489 Phases=1 yearly=res_kw_14218_pu

New Load.load_p17ulv11220_2 conn=wye bus1=p17ulv11220.2 kV=0.12 Vminpu=0.8 Vmaxpu=1.2 model=1 kW=1.6787856041941829 kvar=0.74481557250489 Phases=1 yearly=res_kw_14218_pu

New Load.load_p17ulv11223_1 conn=wye bus1=p17ulv11223.1 kV=0.12 Vminpu=0.8 Vmaxpu=1.2 model=1 kW=2.4984686592236875 kvar=1.0017960118978075 Phases=1 yearly=res_kw_6262_pu

New Load.load_p17ulv11223_2 conn=wye bus1=p17ulv11223.2 kV=0.12 Vminpu=0.8 Vmaxpu=1.2 model=1 kW=2.4984686592236875 kvar=1.0017960118978075 Phases=1 yearly=res_kw_6262_pu

New Load.load_p17ulv11224_1 conn=wye bus1=p17ulv11224.1 kV=0.12 Vminpu=0.8 Vmaxpu=1.2 model=1 kW=6.444134169671828 kvar=1.6968703714746447 Phases=1 yearly=res_kw_5946_pu

New Load.load_p17ulv11224_2 conn=wye bus1=p17ulv11224.2 kV=0.12 Vminpu=0.8 Vmaxpu=1.2 model=1 kW=6.444134169671828 kvar=1.6968703714746447 Phases=1 yearly=res_kw_5946_pu

New Load.load_p17ulv11226_1 conn=wye bus1=p17ulv11226.1 kV=0.12 Vminpu=0.8 Vmaxpu=1.2 model=1 kW=1.941898785419248 kvar=0.8498359578625553 Phases=1 yearly=res_kw_705_pu

New Load.load_p17ulv11226_2 conn=wye bus1=p17ulv11226.2 kV=0.12 Vminpu=0.8 Vmaxpu=1.2 model=1 kW=1.941898785419248 kvar=0.8498359578625553 Phases=1 yearly=res_kw_705_pu

New Load.load_p17ulv11232_1 conn=wye bus1=p17ulv11232.1 kV=0.12 Vminpu=0.8 Vmaxpu=1.2 model=1 kW=6.085511187799001 kvar=0.9441227711458172 Phases=1 yearly=res_kw_12931_pu

New Load.load_p17ulv11232_2 conn=wye bus1=p17ulv11232.2 kV=0.12 Vminpu=0.8 Vmaxpu=1.2 model=1 kW=6.085511187799001 kvar=0.9441227711458172 Phases=1 yearly=res_kw_12931_pu

New Load.load_p17ulv11234_1 conn=wye bus1=p17ulv11234.1 kV=0.12 Vminpu=0.8 Vmaxpu=1.2 model=1 kW=3.625319777434352 kvar=0.6268673114222736 Phases=1 yearly=res_kw_8349_pu

New Load.load_p17ulv11234_2 conn=wye bus1=p17ulv11234.2 kV=0.12 Vminpu=0.8 Vmaxpu=1.2 model=1 kW=3.625319777434352 kvar=0.6268673114222736 Phases=1 yearly=res_kw_8349_pu

New Load.load_p17ulv11235_1 conn=wye bus1=p17ulv11235.1 kV=0.12 Vminpu=0.8 Vmaxpu=1.2 model=1 kW=2.8188960312458 kvar=0.7564306044311911 Phases=1 yearly=res_kw_6255_pu

New Load.load_p17ulv11235_2 conn=wye bus1=p17ulv11235.2 kV=0.12 Vminpu=0.8 Vmaxpu=1.2 model=1 kW=2.8188960312458 kvar=0.7564306044311911 Phases=1 yearly=res_kw_6255_pu

New Load.load_p17ulv11238_1 conn=wye bus1=p17ulv11238.1 kV=0.12 Vminpu=0.8 Vmaxpu=1.2 model=1 kW=3.0684342717282553 kvar=0.9908843663449219 Phases=1 yearly=res_kw_12651_pu

New Load.load_p17ulv11238_2 conn=wye bus1=p17ulv11238.2 kV=0.12 Vminpu=0.8 Vmaxpu=1.2 model=1 kW=3.0684342717282553 kvar=0.9908843663449219 Phases=1 yearly=res_kw_12651_pu

New Load.load_p17ulv11241_1 conn=wye bus1=p17ulv11241.1 kV=0.12 Vminpu=0.8 Vmaxpu=1.2 model=1 kW=5.127438645009231 kvar=0.8176304041402817 Phases=1 yearly=res_kw_13707_pu

New Load.load_p17ulv11241_2 conn=wye bus1=p17ulv11241.2 kV=0.12 Vminpu=0.8 Vmaxpu=1.2 model=1 kW=5.127438645009231 kvar=0.8176304041402817 Phases=1 yearly=res_kw_13707_pu

New Load.load_p17ulv11242_1 conn=wye bus1=p17ulv11242.1 kV=0.12 Vminpu=0.8 Vmaxpu=1.2 model=1 kW=2.728219309881814 kvar=0.763318441891455 Phases=1 yearly=res_kw_10231_pu

New Load.load_p17ulv11242_2 conn=wye bus1=p17ulv11242.2 kV=0.12 Vminpu=0.8 Vmaxpu=1.2 model=1 kW=2.728219309881814 kvar=0.763318441891455 Phases=1 yearly=res_kw_10231_pu

New Load.load_p17ulv11244_1 conn=wye bus1=p17ulv11244.1 kV=0.12 Vminpu=0.8 Vmaxpu=1.2 model=1 kW=2.5807719345269415 kvar=0.1199553608817799 Phases=1 yearly=res_kw_5423_pu

New Load.load_p17ulv11244_2 conn=wye bus1=p17ulv11244.2 kV=0.12 Vminpu=0.8 Vmaxpu=1.2 model=1 kW=2.5807719345269415 kvar=0.1199553608817799 Phases=1 yearly=res_kw_5423_pu

New Load.load_p17ulv11247_1 conn=wye bus1=p17ulv11247.1 kV=0.12 Vminpu=0.8 Vmaxpu=1.2 model=1 kW=1.3123002661268661 kvar=0.4796385807833378 Phases=1 yearly=res_kw_4390_pu

New Load.load_p17ulv11247_2 conn=wye bus1=p17ulv11247.2 kV=0.12 Vminpu=0.8 Vmaxpu=1.2 model=1 kW=1.3123002661268661 kvar=0.4796385807833378 Phases=1 yearly=res_kw_4390_pu

New Load.load_p17ulv11250_1 conn=wye bus1=p17ulv11250.1 kV=0.12 Vminpu=0.8 Vmaxpu=1.2 model=1 kW=4.69722938823788 kvar=0.6546008506549251 Phases=1 yearly=res_kw_12125_pu

New Load.load_p17ulv11250_2 conn=wye bus1=p17ulv11250.2 kV=0.12 Vminpu=0.8 Vmaxpu=1.2 model=1 kW=4.69722938823788 kvar=0.6546008506549251 Phases=1 yearly=res_kw_12125_pu

New Load.load_p17ulv12289_1 conn=wye bus1=p17ulv12289.1 kV=0.12 Vminpu=0.8 Vmaxpu=1.2 model=1 kW=3.283752349161772 kvar=1.1583018658461228 Phases=1 yearly=res_kw_4012_pu

New Load.load_p17ulv12289_2 conn=wye bus1=p17ulv12289.2 kV=0.12 Vminpu=0.8 Vmaxpu=1.2 model=1 kW=3.283752349161772 kvar=1.1583018658461228 Phases=1 yearly=res_kw_4012_pu

New Load.load_p17ulv12291_1 conn=wye bus1=p17ulv12291.1 kV=0.12 Vminpu=0.8 Vmaxpu=1.2 model=1 kW=5.163370190155456 kvar=0.9999526990323999 Phases=1 yearly=res_kw_12803_pu

New Load.load_p17ulv12291_2 conn=wye bus1=p17ulv12291.2 kV=0.12 Vminpu=0.8 Vmaxpu=1.2 model=1 kW=5.163370190155456 kvar=0.9999526990323999 Phases=1 yearly=res_kw_12803_pu

New Load.load_p17ulv12302_1 conn=wye bus1=p17ulv12302.1 kV=0.12 Vminpu=0.8 Vmaxpu=1.2 model=1 kW=5.035864291722066 kvar=1.3172123128710984 Phases=1 yearly=res_kw_960_pu

New Load.load_p17ulv12302_2 conn=wye bus1=p17ulv12302.2 kV=0.12 Vminpu=0.8 Vmaxpu=1.2 model=1 kW=5.035864291722066 kvar=1.3172123128710984 Phases=1 yearly=res_kw_960_pu

New Load.load_p17ulv12303_1 conn=wye bus1=p17ulv12303.1 kV=0.12 Vminpu=0.8 Vmaxpu=1.2 model=1 kW=2.3834256683973267 kvar=0.9702928129566425 Phases=1 yearly=res_kw_8118_pu

New Load.load_p17ulv12303_2 conn=wye bus1=p17ulv12303.2 kV=0.12 Vminpu=0.8 Vmaxpu=1.2 model=1 kW=2.3834256683973267 kvar=0.9702928129566425 Phases=1 yearly=res_kw_8118_pu

New Load.load_p17ulv12308_1 conn=wye bus1=p17ulv12308.1 kV=0.12 Vminpu=0.8 Vmaxpu=1.2 model=1 kW=6.43627459928816 kvar=0.9477800477510742 Phases=1 yearly=res_kw_7096_pu

New Load.load_p17ulv12308_2 conn=wye bus1=p17ulv12308.2 kV=0.12 Vminpu=0.8 Vmaxpu=1.2 model=1 kW=6.43627459928816 kvar=0.9477800477510742 Phases=1 yearly=res_kw_7096_pu

New Load.load_p17ulv12314_1 conn=wye bus1=p17ulv12314.1 kV=0.12 Vminpu=0.8 Vmaxpu=1.2 model=1 kW=8.740041644269233 kvar=0.1041876898492159 Phases=1 yearly=res_kw_14411_pu

New Load.load_p17ulv12314_2 conn=wye bus1=p17ulv12314.2 kV=0.12 Vminpu=0.8 Vmaxpu=1.2 model=1 kW=8.740041644269233 kvar=0.1041876898492159 Phases=1 yearly=res_kw_14411_pu

New Load.load_p17ulv12321_1 conn=wye bus1=p17ulv12321.1 kV=0.12 Vminpu=0.8 Vmaxpu=1.2 model=1 kW=5.116769162933101 kvar=1.3894690735690358 Phases=1 yearly=res_kw_4976_pu

New Load.load_p17ulv12321_2 conn=wye bus1=p17ulv12321.2 kV=0.12 Vminpu=0.8 Vmaxpu=1.2 model=1 kW=5.116769162933101 kvar=1.3894690735690358 Phases=1 yearly=res_kw_4976_pu

New Load.load_p17ulv12324_1 conn=wye bus1=p17ulv12324.1 kV=0.12 Vminpu=0.8 Vmaxpu=1.2 model=1 kW=1.5565720164035677 kvar=0.8290321013675543 Phases=1 yearly=res_kw_7847_pu

New Load.load_p17ulv12324_2 conn=wye bus1=p17ulv12324.2 kV=0.12 Vminpu=0.8 Vmaxpu=1.2 model=1 kW=1.5565720164035677 kvar=0.8290321013675543 Phases=1 yearly=res_kw_7847_pu

New Load.load_p17ulv12331_1 conn=wye bus1=p17ulv12331.1 kV=0.12 Vminpu=0.8 Vmaxpu=1.2 model=1 kW=5.860157714731325 kvar=1.8294256325268106 Phases=1 yearly=res_kw_2365_pu

New Load.load_p17ulv12331_2 conn=wye bus1=p17ulv12331.2 kV=0.12 Vminpu=0.8 Vmaxpu=1.2 model=1 kW=5.860157714731325 kvar=1.8294256325268106 Phases=1 yearly=res_kw_2365_pu

New Load.load_p17ulv12336_1 conn=wye bus1=p17ulv12336.1 kV=0.12 Vminpu=0.8 Vmaxpu=1.2 model=1 kW=4.108110366335613 kvar=0.6051916797399923 Phases=1 yearly=res_kw_14614_pu

New Load.load_p17ulv12336_2 conn=wye bus1=p17ulv12336.2 kV=0.12 Vminpu=0.8 Vmaxpu=1.2 model=1 kW=4.108110366335613 kvar=0.6051916797399923 Phases=1 yearly=res_kw_14614_pu

New Load.load_p17ulv12337_1 conn=wye bus1=p17ulv12337.1 kV=0.12 Vminpu=0.8 Vmaxpu=1.2 model=1 kW=2.314954210015221 kvar=1.106584285278311 Phases=1 yearly=res_kw_48_pu

New Load.load_p17ulv12337_2 conn=wye bus1=p17ulv12337.2 kV=0.12 Vminpu=0.8 Vmaxpu=1.2 model=1 kW=2.314954210015221 kvar=1.106584285278311 Phases=1 yearly=res_kw_48_pu

New Load.load_p17ulv12342_1 conn=wye bus1=p17ulv12342.1 kV=0.12 Vminpu=0.8 Vmaxpu=1.2 model=1 kW=4.871678860365591 kvar=2.1024533630826014 Phases=1 yearly=res_kw_10985_pu

New Load.load_p17ulv12342_2 conn=wye bus1=p17ulv12342.2 kV=0.12 Vminpu=0.8 Vmaxpu=1.2 model=1 kW=4.871678860365591 kvar=2.1024533630826014 Phases=1 yearly=res_kw_10985_pu

New Load.load_p17ulv12344_1 conn=wye bus1=p17ulv12344.1 kV=0.12 Vminpu=0.8 Vmaxpu=1.2 model=1 kW=8.847781557535471 kvar=2.1190515200331044 Phases=1 yearly=res_kw_3384_pu

New Load.load_p17ulv12344_2 conn=wye bus1=p17ulv12344.2 kV=0.12 Vminpu=0.8 Vmaxpu=1.2 model=1 kW=8.847781557535471 kvar=2.1190515200331044 Phases=1 yearly=res_kw_3384_pu

New Load.load_p17ulv12350_1 conn=wye bus1=p17ulv12350.1 kV=0.12 Vminpu=0.8 Vmaxpu=1.2 model=1 kW=18.884173149072737 kvar=4.27689881514678 Phases=1 yearly=res_kw_3296_pu

New Load.load_p17ulv12350_2 conn=wye bus1=p17ulv12350.2 kV=0.12 Vminpu=0.8 Vmaxpu=1.2 model=1 kW=18.884173149072737 kvar=4.27689881514678 Phases=1 yearly=res_kw_3296_pu

New Load.load_p17ulv12359_1 conn=wye bus1=p17ulv12359.1 kV=0.12 Vminpu=0.8 Vmaxpu=1.2 model=1 kW=4.3570107644763665 kvar=1.0196850760740372 Phases=1 yearly=res_kw_7457_pu

New Load.load_p17ulv12359_2 conn=wye bus1=p17ulv12359.2 kV=0.12 Vminpu=0.8 Vmaxpu=1.2 model=1 kW=4.3570107644763665 kvar=1.0196850760740372 Phases=1 yearly=res_kw_7457_pu

New Load.load_p17ulv12362_1 conn=wye bus1=p17ulv12362.1 kV=0.12 Vminpu=0.8 Vmaxpu=1.2 model=1 kW=10.32986796956123 kvar=0.7225002822219561 Phases=1 yearly=res_kw_5977_pu

New Load.load_p17ulv12362_2 conn=wye bus1=p17ulv12362.2 kV=0.12 Vminpu=0.8 Vmaxpu=1.2 model=1 kW=10.32986796956123 kvar=0.7225002822219561 Phases=1 yearly=res_kw_5977_pu

New Load.load_p17ulv12363_1 conn=wye bus1=p17ulv12363.1 kV=0.12 Vminpu=0.8 Vmaxpu=1.2 model=1 kW=4.025862244582246 kvar=1.1423616747148284 Phases=1 yearly=res_kw_12348_pu

New Load.load_p17ulv12363_2 conn=wye bus1=p17ulv12363.2 kV=0.12 Vminpu=0.8 Vmaxpu=1.2 model=1 kW=4.025862244582246 kvar=1.1423616747148284 Phases=1 yearly=res_kw_12348_pu

New Load.load_p17ulv12373_1 conn=wye bus1=p17ulv12373.1 kV=0.12 Vminpu=0.8 Vmaxpu=1.2 model=1 kW=6.194489824277317 kvar=1.5288366499049897 Phases=1 yearly=res_kw_5656_pu

New Load.load_p17ulv12373_2 conn=wye bus1=p17ulv12373.2 kV=0.12 Vminpu=0.8 Vmaxpu=1.2 model=1 kW=6.194489824277317 kvar=1.5288366499049897 Phases=1 yearly=res_kw_5656_pu

New Load.load_p17ulv12385_1 conn=wye bus1=p17ulv12385.1 kV=0.12 Vminpu=0.8 Vmaxpu=1.2 model=1 kW=5.961931681908369 kvar=1.679314970659087 Phases=1 yearly=res_kw_7029_pu

New Load.load_p17ulv12385_2 conn=wye bus1=p17ulv12385.2 kV=0.12 Vminpu=0.8 Vmaxpu=1.2 model=1 kW=5.961931681908369 kvar=1.679314970659087 Phases=1 yearly=res_kw_7029_pu

New Load.load_p17ulv12400_1 conn=wye bus1=p17ulv12400.1 kV=0.12 Vminpu=0.8 Vmaxpu=1.2 model=1 kW=2.378584581229499 kvar=0.8721628693272371 Phases=1 yearly=res_kw_14160_pu

New Load.load_p17ulv12400_2 conn=wye bus1=p17ulv12400.2 kV=0.12 Vminpu=0.8 Vmaxpu=1.2 model=1 kW=2.378584581229499 kvar=0.8721628693272371 Phases=1 yearly=res_kw_14160_pu

New Load.load_p17ulv12408_1 conn=wye bus1=p17ulv12408.1 kV=0.12 Vminpu=0.8 Vmaxpu=1.2 model=1 kW=3.9890922542620206 kvar=0.716354988208188 Phases=1 yearly=res_kw_4734_pu

New Load.load_p17ulv12408_2 conn=wye bus1=p17ulv12408.2 kV=0.12 Vminpu=0.8 Vmaxpu=1.2 model=1 kW=3.9890922542620206 kvar=0.716354988208188 Phases=1 yearly=res_kw_4734_pu

New Load.load_p17ulv12416_1 conn=wye bus1=p17ulv12291.1 kV=0.12 Vminpu=0.8 Vmaxpu=1.2 model=1 kW=1.973294008113488 kvar=0.1951315698321081 Phases=1 yearly=res_kw_13866_pu

New Load.load_p17ulv12416_2 conn=wye bus1=p17ulv12291.2 kV=0.12 Vminpu=0.8 Vmaxpu=1.2 model=1 kW=1.973294008113488 kvar=0.1951315698321081 Phases=1 yearly=res_kw_13866_pu

New Load.load_p17ulv12422_1 conn=wye bus1=p17ulv12422.1 kV=0.12 Vminpu=0.8 Vmaxpu=1.2 model=1 kW=1.6497679521730204 kvar=0.7381235788904033 Phases=1 yearly=res_kw_13589_pu

New Load.load_p17ulv12422_2 conn=wye bus1=p17ulv12422.2 kV=0.12 Vminpu=0.8 Vmaxpu=1.2 model=1 kW=1.6497679521730204 kvar=0.7381235788904033 Phases=1 yearly=res_kw_13589_pu

New Load.load_p17ulv12425_1 conn=wye bus1=p17ulv12425.1 kV=0.12 Vminpu=0.8 Vmaxpu=1.2 model=1 kW=2.0296094058192193 kvar=0.8851538524476449 Phases=1 yearly=res_kw_9331_pu

New Load.load_p17ulv12425_2 conn=wye bus1=p17ulv12425.2 kV=0.12 Vminpu=0.8 Vmaxpu=1.2 model=1 kW=2.0296094058192193 kvar=0.8851538524476449 Phases=1 yearly=res_kw_9331_pu

New Load.load_p17ulv12430_1 conn=wye bus1=p17ulv12430.1 kV=0.12 Vminpu=0.8 Vmaxpu=1.2 model=1 kW=6.029340317181467 kvar=0.8428650524659024 Phases=1 yearly=res_kw_7631_pu

New Load.load_p17ulv12430_2 conn=wye bus1=p17ulv12430.2 kV=0.12 Vminpu=0.8 Vmaxpu=1.2 model=1 kW=6.029340317181467 kvar=0.8428650524659024 Phases=1 yearly=res_kw_7631_pu

New Load.load_p17ulv12433_1 conn=wye bus1=p17ulv12433.1 kV=0.12 Vminpu=0.8 Vmaxpu=1.2 model=1 kW=5.374987363430531 kvar=0.2502445808692977 Phases=1 yearly=res_kw_6607_pu

New Load.load_p17ulv12433_2 conn=wye bus1=p17ulv12433.2 kV=0.12 Vminpu=0.8 Vmaxpu=1.2 model=1 kW=5.374987363430531 kvar=0.2502445808692977 Phases=1 yearly=res_kw_6607_pu

New Load.load_p17ulv12434_1 conn=wye bus1=p17ulv12434.1 kV=0.12 Vminpu=0.8 Vmaxpu=1.2 model=1 kW=4.265177721835483 kvar=0.8142683596244107 Phases=1 yearly=res_kw_8073_pu

New Load.load_p17ulv12434_2 conn=wye bus1=p17ulv12434.2 kV=0.12 Vminpu=0.8 Vmaxpu=1.2 model=1 kW=4.265177721835483 kvar=0.8142683596244107 Phases=1 yearly=res_kw_8073_pu

New Load.load_p17ulv12438_1 conn=wye bus1=p17ulv12438.1 kV=0.12 Vminpu=0.8 Vmaxpu=1.2 model=1 kW=5.400219488363189 kvar=1.7044694496724753 Phases=1 yearly=res_kw_4708_pu

New Load.load_p17ulv12438_2 conn=wye bus1=p17ulv12438.2 kV=0.12 Vminpu=0.8 Vmaxpu=1.2 model=1 kW=5.400219488363189 kvar=1.7044694496724753 Phases=1 yearly=res_kw_4708_pu

New Load.load_p17ulv12444_1 conn=wye bus1=p17ulv12444.1 kV=0.12 Vminpu=0.8 Vmaxpu=1.2 model=1 kW=3.9890922542620206 kvar=0.716354988208188 Phases=1 yearly=res_kw_4734_pu
