New Loadshape.SFO_37.9742_-121.9348_55_225 npts= 35040 interval=0.25 mult = (file=../../../../../profiles/SFO_37.9742_-121.9348_55_225.csv)

New Loadshape.SFO_37.9373_-121.9348_15_225 npts= 35040 interval=0.25 mult = (file=../../../../../profiles/SFO_37.9373_-121.9348_15_225.csv)

New Loadshape.SFO_37.9373_-121.9348_15_270 npts= 35040 interval=0.25 mult = (file=../../../../../profiles/SFO_37.9373_-121.9348_15_270.csv)

New Loadshape.SFO_37.9742_-121.9348_45_90 npts= 35040 interval=0.25 mult = (file=../../../../../profiles/SFO_37.9742_-121.9348_45_90.csv)

New Loadshape.SFO_37.9742_-121.9348_35_225 npts= 35040 interval=0.25 mult = (file=../../../../../profiles/SFO_37.9742_-121.9348_35_225.csv)

New Loadshape.SFO_37.9742_-121.9348_15_180 npts= 35040 interval=0.25 mult = (file=../../../../../profiles/SFO_37.9742_-121.9348_15_180.csv)

New Loadshape.SFO_37.9742_-121.9348_15_270 npts= 35040 interval=0.25 mult = (file=../../../../../profiles/SFO_37.9742_-121.9348_15_270.csv)

New Loadshape.SFO_37.9742_-121.9348_35_180 npts= 35040 interval=0.25 mult = (file=../../../../../profiles/SFO_37.9742_-121.9348_35_180.csv)

New Loadshape.SFO_37.9742_-121.9348_15_90 npts= 35040 interval=0.25 mult = (file=../../../../../profiles/SFO_37.9742_-121.9348_15_90.csv)

New Loadshape.SFO_37.9742_-121.9348_25_90 npts= 35040 interval=0.25 mult = (file=../../../../../profiles/SFO_37.9742_-121.9348_25_90.csv)

New Loadshape.SFO_37.9742_-121.9348_25_180 npts= 35040 interval=0.25 mult = (file=../../../../../profiles/SFO_37.9742_-121.9348_25_180.csv)

New Loadshape.SFO_37.9742_-121.9348_15_225 npts= 35040 interval=0.25 mult = (file=../../../../../profiles/SFO_37.9742_-121.9348_15_225.csv)

New Loadshape.SFO_37.9742_-121.9348_35_90 npts= 35040 interval=0.25 mult = (file=../../../../../profiles/SFO_37.9742_-121.9348_35_90.csv)

New Loadshape.SFO_37.9742_-121.9348_25_135 npts= 35040 interval=0.25 mult = (file=../../../../../profiles/SFO_37.9742_-121.9348_25_135.csv)

New Loadshape.SFO_37.9742_-121.9348_15_135 npts= 35040 interval=0.25 mult = (file=../../../../../profiles/SFO_37.9742_-121.9348_15_135.csv)

New Loadshape.SFO_37.9742_-121.9348_45_225 npts= 35040 interval=0.25 mult = (file=../../../../../profiles/SFO_37.9742_-121.9348_45_225.csv)

New Loadshape.SFO_37.9742_-121.9348_25_225 npts= 35040 interval=0.25 mult = (file=../../../../../profiles/SFO_37.9742_-121.9348_25_225.csv)

New Loadshape.SFO_37.9742_-121.9348_35_135 npts= 35040 interval=0.25 mult = (file=../../../../../profiles/SFO_37.9742_-121.9348_35_135.csv)

New Loadshape.SFO_37.9742_-121.9348_25_270 npts= 35040 interval=0.25 mult = (file=../../../../../profiles/SFO_37.9742_-121.9348_25_270.csv)

New Loadshape.SFO_37.9742_-121.9348_45_135 npts= 35040 interval=0.25 mult = (file=../../../../../profiles/SFO_37.9742_-121.9348_45_135.csv)

New Loadshape.SFO_37.9373_-121.9348_35_90 npts= 35040 interval=0.25 mult = (file=../../../../../profiles/SFO_37.9373_-121.9348_35_90.csv)

New Loadshape.SFO_37.9742_-121.9348_45_180 npts= 35040 interval=0.25 mult = (file=../../../../../profiles/SFO_37.9742_-121.9348_45_180.csv)

New Loadshape.SFO_37.9742_-121.9348_35_270 npts= 35040 interval=0.25 mult = (file=../../../../../profiles/SFO_37.9742_-121.9348_35_270.csv)

New Loadshape.SFO_37.9742_-121.9348_45_270 npts= 35040 interval=0.25 mult = (file=../../../../../profiles/SFO_37.9742_-121.9348_45_270.csv)

New Loadshape.SFO_37.9373_-121.9348_25_90 npts= 35040 interval=0.25 mult = (file=../../../../../profiles/SFO_37.9373_-121.9348_25_90.csv)

New Loadshape.res_kw_839_pu npts= 35040 interval=0.25 mult = (file=../../../../../profiles/res_kw_839_pu.csv) qmult = (file=../../../../../profiles/res_kvar_839_pu.csv)

New Loadshape.res_kw_2736_pu npts= 35040 interval=0.25 mult = (file=../../../../../profiles/res_kw_2736_pu.csv) qmult = (file=../../../../../profiles/res_kvar_2736_pu.csv)

New Loadshape.res_kw_5946_pu npts= 35040 interval=0.25 mult = (file=../../../../../profiles/res_kw_5946_pu.csv) qmult = (file=../../../../../profiles/res_kvar_5946_pu.csv)

New Loadshape.res_kw_10915_pu npts= 35040 interval=0.25 mult = (file=../../../../../profiles/res_kw_10915_pu.csv) qmult = (file=../../../../../profiles/res_kvar_10915_pu.csv)

New Loadshape.res_kw_7181_pu npts= 35040 interval=0.25 mult = (file=../../../../../profiles/res_kw_7181_pu.csv) qmult = (file=../../../../../profiles/res_kvar_7181_pu.csv)

New Loadshape.res_kw_6166_pu npts= 35040 interval=0.25 mult = (file=../../../../../profiles/res_kw_6166_pu.csv) qmult = (file=../../../../../profiles/res_kvar_6166_pu.csv)

New Loadshape.res_kw_8369_pu npts= 35040 interval=0.25 mult = (file=../../../../../profiles/res_kw_8369_pu.csv) qmult = (file=../../../../../profiles/res_kvar_8369_pu.csv)

New Loadshape.res_kw_442_pu npts= 35040 interval=0.25 mult = (file=../../../../../profiles/res_kw_442_pu.csv) qmult = (file=../../../../../profiles/res_kvar_442_pu.csv)

New Loadshape.res_kw_11512_pu npts= 35040 interval=0.25 mult = (file=../../../../../profiles/res_kw_11512_pu.csv) qmult = (file=../../../../../profiles/res_kvar_11512_pu.csv)

New Loadshape.res_kw_13175_pu npts= 35040 interval=0.25 mult = (file=../../../../../profiles/res_kw_13175_pu.csv) qmult = (file=../../../../../profiles/res_kvar_13175_pu.csv)

New Loadshape.res_kw_48_pu npts= 35040 interval=0.25 mult = (file=../../../../../profiles/res_kw_48_pu.csv) qmult = (file=../../../../../profiles/res_kvar_48_pu.csv)

New Loadshape.res_kw_7631_pu npts= 35040 interval=0.25 mult = (file=../../../../../profiles/res_kw_7631_pu.csv) qmult = (file=../../../../../profiles/res_kvar_7631_pu.csv)

New Loadshape.res_kw_742_pu npts= 35040 interval=0.25 mult = (file=../../../../../profiles/res_kw_742_pu.csv) qmult = (file=../../../../../profiles/res_kvar_742_pu.csv)

New Loadshape.res_kw_7476_pu npts= 35040 interval=0.25 mult = (file=../../../../../profiles/res_kw_7476_pu.csv) qmult = (file=../../../../../profiles/res_kvar_7476_pu.csv)

New Loadshape.res_kw_10487_pu npts= 35040 interval=0.25 mult = (file=../../../../../profiles/res_kw_10487_pu.csv) qmult = (file=../../../../../profiles/res_kvar_10487_pu.csv)

New Loadshape.res_kw_2882_pu npts= 35040 interval=0.25 mult = (file=../../../../../profiles/res_kw_2882_pu.csv) qmult = (file=../../../../../profiles/res_kvar_2882_pu.csv)

New Loadshape.res_kw_4011_pu npts= 35040 interval=0.25 mult = (file=../../../../../profiles/res_kw_4011_pu.csv) qmult = (file=../../../../../profiles/res_kvar_4011_pu.csv)

New Loadshape.res_kw_4012_pu npts= 35040 interval=0.25 mult = (file=../../../../../profiles/res_kw_4012_pu.csv) qmult = (file=../../../../../profiles/res_kvar_4012_pu.csv)

New Loadshape.res_kw_1829_pu npts= 35040 interval=0.25 mult = (file=../../../../../profiles/res_kw_1829_pu.csv) qmult = (file=../../../../../profiles/res_kvar_1829_pu.csv)

New Loadshape.res_kw_9045_pu npts= 35040 interval=0.25 mult = (file=../../../../../profiles/res_kw_9045_pu.csv) qmult = (file=../../../../../profiles/res_kvar_9045_pu.csv)

New Loadshape.res_kw_6087_pu npts= 35040 interval=0.25 mult = (file=../../../../../profiles/res_kw_6087_pu.csv) qmult = (file=../../../../../profiles/res_kvar_6087_pu.csv)

New Loadshape.res_kw_5610_pu npts= 35040 interval=0.25 mult = (file=../../../../../profiles/res_kw_5610_pu.csv) qmult = (file=../../../../../profiles/res_kvar_5610_pu.csv)

New Loadshape.res_kw_4327_pu npts= 35040 interval=0.25 mult = (file=../../../../../profiles/res_kw_4327_pu.csv) qmult = (file=../../../../../profiles/res_kvar_4327_pu.csv)

New Loadshape.res_kw_6308_pu npts= 35040 interval=0.25 mult = (file=../../../../../profiles/res_kw_6308_pu.csv) qmult = (file=../../../../../profiles/res_kvar_6308_pu.csv)

New Loadshape.res_kw_13931_pu npts= 35040 interval=0.25 mult = (file=../../../../../profiles/res_kw_13931_pu.csv) qmult = (file=../../../../../profiles/res_kvar_13931_pu.csv)

New Loadshape.res_kw_2345_pu npts= 35040 interval=0.25 mult = (file=../../../../../profiles/res_kw_2345_pu.csv) qmult = (file=../../../../../profiles/res_kvar_2345_pu.csv)

New Loadshape.res_kw_3219_pu npts= 35040 interval=0.25 mult = (file=../../../../../profiles/res_kw_3219_pu.csv) qmult = (file=../../../../../profiles/res_kvar_3219_pu.csv)

New Loadshape.res_kw_8820_pu npts= 35040 interval=0.25 mult = (file=../../../../../profiles/res_kw_8820_pu.csv) qmult = (file=../../../../../profiles/res_kvar_8820_pu.csv)

New Loadshape.res_kw_1463_pu npts= 35040 interval=0.25 mult = (file=../../../../../profiles/res_kw_1463_pu.csv) qmult = (file=../../../../../profiles/res_kvar_1463_pu.csv)

New Loadshape.res_kw_13866_pu npts= 35040 interval=0.25 mult = (file=../../../../../profiles/res_kw_13866_pu.csv) qmult = (file=../../../../../profiles/res_kvar_13866_pu.csv)

New Loadshape.res_kw_2514_pu npts= 35040 interval=0.25 mult = (file=../../../../../profiles/res_kw_2514_pu.csv) qmult = (file=../../../../../profiles/res_kvar_2514_pu.csv)

New Loadshape.res_kw_14470_pu npts= 35040 interval=0.25 mult = (file=../../../../../profiles/res_kw_14470_pu.csv) qmult = (file=../../../../../profiles/res_kvar_14470_pu.csv)

New Loadshape.res_kw_8349_pu npts= 35040 interval=0.25 mult = (file=../../../../../profiles/res_kw_8349_pu.csv) qmult = (file=../../../../../profiles/res_kvar_8349_pu.csv)

New Loadshape.res_kw_2369_pu npts= 35040 interval=0.25 mult = (file=../../../../../profiles/res_kw_2369_pu.csv) qmult = (file=../../../../../profiles/res_kvar_2369_pu.csv)

New Loadshape.res_kw_6056_pu npts= 35040 interval=0.25 mult = (file=../../../../../profiles/res_kw_6056_pu.csv) qmult = (file=../../../../../profiles/res_kvar_6056_pu.csv)

New Loadshape.res_kw_5155_pu npts= 35040 interval=0.25 mult = (file=../../../../../profiles/res_kw_5155_pu.csv) qmult = (file=../../../../../profiles/res_kvar_5155_pu.csv)

New Loadshape.res_kw_1517_pu npts= 35040 interval=0.25 mult = (file=../../../../../profiles/res_kw_1517_pu.csv) qmult = (file=../../../../../profiles/res_kvar_1517_pu.csv)

New Loadshape.res_kw_13253_pu npts= 35040 interval=0.25 mult = (file=../../../../../profiles/res_kw_13253_pu.csv) qmult = (file=../../../../../profiles/res_kvar_13253_pu.csv)

New Loadshape.res_kw_10740_pu npts= 35040 interval=0.25 mult = (file=../../../../../profiles/res_kw_10740_pu.csv) qmult = (file=../../../../../profiles/res_kvar_10740_pu.csv)

New Loadshape.res_kw_8073_pu npts= 35040 interval=0.25 mult = (file=../../../../../profiles/res_kw_8073_pu.csv) qmult = (file=../../../../../profiles/res_kvar_8073_pu.csv)

New Loadshape.res_kw_13338_pu npts= 35040 interval=0.25 mult = (file=../../../../../profiles/res_kw_13338_pu.csv) qmult = (file=../../../../../profiles/res_kvar_13338_pu.csv)

New Loadshape.res_kw_3092_pu npts= 35040 interval=0.25 mult = (file=../../../../../profiles/res_kw_3092_pu.csv) qmult = (file=../../../../../profiles/res_kvar_3092_pu.csv)

New Loadshape.res_kw_14218_pu npts= 35040 interval=0.25 mult = (file=../../../../../profiles/res_kw_14218_pu.csv) qmult = (file=../../../../../profiles/res_kvar_14218_pu.csv)

New Loadshape.res_kw_6262_pu npts= 35040 interval=0.25 mult = (file=../../../../../profiles/res_kw_6262_pu.csv) qmult = (file=../../../../../profiles/res_kvar_6262_pu.csv)

New Loadshape.res_kw_705_pu npts= 35040 interval=0.25 mult = (file=../../../../../profiles/res_kw_705_pu.csv) qmult = (file=../../../../../profiles/res_kvar_705_pu.csv)

New Loadshape.res_kw_12931_pu npts= 35040 interval=0.25 mult = (file=../../../../../profiles/res_kw_12931_pu.csv) qmult = (file=../../../../../profiles/res_kvar_12931_pu.csv)

New Loadshape.res_kw_6255_pu npts= 35040 interval=0.25 mult = (file=../../../../../profiles/res_kw_6255_pu.csv) qmult = (file=../../../../../profiles/res_kvar_6255_pu.csv)

New Loadshape.res_kw_12651_pu npts= 35040 interval=0.25 mult = (file=../../../../../profiles/res_kw_12651_pu.csv) qmult = (file=../../../../../profiles/res_kvar_12651_pu.csv)

New Loadshape.res_kw_13707_pu npts= 35040 interval=0.25 mult = (file=../../../../../profiles/res_kw_13707_pu.csv) qmult = (file=../../../../../profiles/res_kvar_13707_pu.csv)

New Loadshape.res_kw_10231_pu npts= 35040 interval=0.25 mult = (file=../../../../../profiles/res_kw_10231_pu.csv) qmult = (file=../../../../../profiles/res_kvar_10231_pu.csv)

New Loadshape.res_kw_5423_pu npts= 35040 interval=0.25 mult = (file=../../../../../profiles/res_kw_5423_pu.csv) qmult = (file=../../../../../profiles/res_kvar_5423_pu.csv)

New Loadshape.res_kw_4390_pu npts= 35040 interval=0.25 mult = (file=../../../../../profiles/res_kw_4390_pu.csv) qmult = (file=../../../../../profiles/res_kvar_4390_pu.csv)

New Loadshape.res_kw_12125_pu npts= 35040 interval=0.25 mult = (file=../../../../../profiles/res_kw_12125_pu.csv) qmult = (file=../../../../../profiles/res_kvar_12125_pu.csv)

New Loadshape.res_kw_12803_pu npts= 35040 interval=0.25 mult = (file=../../../../../profiles/res_kw_12803_pu.csv) qmult = (file=../../../../../profiles/res_kvar_12803_pu.csv)

New Loadshape.res_kw_960_pu npts= 35040 interval=0.25 mult = (file=../../../../../profiles/res_kw_960_pu.csv) qmult = (file=../../../../../profiles/res_kvar_960_pu.csv)

New Loadshape.res_kw_8118_pu npts= 35040 interval=0.25 mult = (file=../../../../../profiles/res_kw_8118_pu.csv) qmult = (file=../../../../../profiles/res_kvar_8118_pu.csv)

New Loadshape.res_kw_7096_pu npts= 35040 interval=0.25 mult = (file=../../../../../profiles/res_kw_7096_pu.csv) qmult = (file=../../../../../profiles/res_kvar_7096_pu.csv)

New Loadshape.res_kw_14411_pu npts= 35040 interval=0.25 mult = (file=../../../../../profiles/res_kw_14411_pu.csv) qmult = (file=../../../../../profiles/res_kvar_14411_pu.csv)

New Loadshape.res_kw_4976_pu npts= 35040 interval=0.25 mult = (file=../../../../../profiles/res_kw_4976_pu.csv) qmult = (file=../../../../../profiles/res_kvar_4976_pu.csv)

New Loadshape.res_kw_7847_pu npts= 35040 interval=0.25 mult = (file=../../../../../profiles/res_kw_7847_pu.csv) qmult = (file=../../../../../profiles/res_kvar_7847_pu.csv)

New Loadshape.res_kw_2365_pu npts= 35040 interval=0.25 mult = (file=../../../../../profiles/res_kw_2365_pu.csv) qmult = (file=../../../../../profiles/res_kvar_2365_pu.csv)

New Loadshape.res_kw_14614_pu npts= 35040 interval=0.25 mult = (file=../../../../../profiles/res_kw_14614_pu.csv) qmult = (file=../../../../../profiles/res_kvar_14614_pu.csv)

New Loadshape.res_kw_10985_pu npts= 35040 interval=0.25 mult = (file=../../../../../profiles/res_kw_10985_pu.csv) qmult = (file=../../../../../profiles/res_kvar_10985_pu.csv)

New Loadshape.res_kw_3384_pu npts= 35040 interval=0.25 mult = (file=../../../../../profiles/res_kw_3384_pu.csv) qmult = (file=../../../../../profiles/res_kvar_3384_pu.csv)

New Loadshape.res_kw_3296_pu npts= 35040 interval=0.25 mult = (file=../../../../../profiles/res_kw_3296_pu.csv) qmult = (file=../../../../../profiles/res_kvar_3296_pu.csv)

New Loadshape.res_kw_7457_pu npts= 35040 interval=0.25 mult = (file=../../../../../profiles/res_kw_7457_pu.csv) qmult = (file=../../../../../profiles/res_kvar_7457_pu.csv)

New Loadshape.res_kw_5977_pu npts= 35040 interval=0.25 mult = (file=../../../../../profiles/res_kw_5977_pu.csv) qmult = (file=../../../../../profiles/res_kvar_5977_pu.csv)

New Loadshape.res_kw_12348_pu npts= 35040 interval=0.25 mult = (file=../../../../../profiles/res_kw_12348_pu.csv) qmult = (file=../../../../../profiles/res_kvar_12348_pu.csv)

New Loadshape.res_kw_5656_pu npts= 35040 interval=0.25 mult = (file=../../../../../profiles/res_kw_5656_pu.csv) qmult = (file=../../../../../profiles/res_kvar_5656_pu.csv)

New Loadshape.res_kw_7029_pu npts= 35040 interval=0.25 mult = (file=../../../../../profiles/res_kw_7029_pu.csv) qmult = (file=../../../../../profiles/res_kvar_7029_pu.csv)

New Loadshape.res_kw_14160_pu npts= 35040 interval=0.25 mult = (file=../../../../../profiles/res_kw_14160_pu.csv) qmult = (file=../../../../../profiles/res_kvar_14160_pu.csv)

New Loadshape.res_kw_4734_pu npts= 35040 interval=0.25 mult = (file=../../../../../profiles/res_kw_4734_pu.csv) qmult = (file=../../../../../profiles/res_kvar_4734_pu.csv)

New Loadshape.res_kw_13589_pu npts= 35040 interval=0.25 mult = (file=../../../../../profiles/res_kw_13589_pu.csv) qmult = (file=../../../../../profiles/res_kvar_13589_pu.csv)

New Loadshape.res_kw_9331_pu npts= 35040 interval=0.25 mult = (file=../../../../../profiles/res_kw_9331_pu.csv) qmult = (file=../../../../../profiles/res_kvar_9331_pu.csv)

New Loadshape.res_kw_6607_pu npts= 35040 interval=0.25 mult = (file=../../../../../profiles/res_kw_6607_pu.csv) qmult = (file=../../../../../profiles/res_kvar_6607_pu.csv)

New Loadshape.res_kw_4708_pu npts= 35040 interval=0.25 mult = (file=../../../../../profiles/res_kw_4708_pu.csv) qmult = (file=../../../../../profiles/res_kvar_4708_pu.csv)

New Loadshape.res_kw_8121_pu npts= 35040 interval=0.25 mult = (file=../../../../../profiles/res_kw_8121_pu.csv) qmult = (file=../../../../../profiles/res_kvar_8121_pu.csv)

New Loadshape.res_kw_4761_pu npts= 35040 interval=0.25 mult = (file=../../../../../profiles/res_kw_4761_pu.csv) qmult = (file=../../../../../profiles/res_kvar_4761_pu.csv)

New Loadshape.res_kw_4586_pu npts= 35040 interval=0.25 mult = (file=../../../../../profiles/res_kw_4586_pu.csv) qmult = (file=../../../../../profiles/res_kvar_4586_pu.csv)

New Loadshape.res_kw_7810_pu npts= 35040 interval=0.25 mult = (file=../../../../../profiles/res_kw_7810_pu.csv) qmult = (file=../../../../../profiles/res_kvar_7810_pu.csv)

New Loadshape.res_kw_1201_pu npts= 35040 interval=0.25 mult = (file=../../../../../profiles/res_kw_1201_pu.csv) qmult = (file=../../../../../profiles/res_kvar_1201_pu.csv)

New Loadshape.res_kw_6240_pu npts= 35040 interval=0.25 mult = (file=../../../../../profiles/res_kw_6240_pu.csv) qmult = (file=../../../../../profiles/res_kvar_6240_pu.csv)

New Loadshape.res_kw_13271_pu npts= 35040 interval=0.25 mult = (file=../../../../../profiles/res_kw_13271_pu.csv) qmult = (file=../../../../../profiles/res_kvar_13271_pu.csv)

New Loadshape.res_kw_8450_pu npts= 35040 interval=0.25 mult = (file=../../../../../profiles/res_kw_8450_pu.csv) qmult = (file=../../../../../profiles/res_kvar_8450_pu.csv)

New Loadshape.res_kw_2070_pu npts= 35040 interval=0.25 mult = (file=../../../../../profiles/res_kw_2070_pu.csv) qmult = (file=../../../../../profiles/res_kvar_2070_pu.csv)

New Loadshape.res_kw_11406_pu npts= 35040 interval=0.25 mult = (file=../../../../../profiles/res_kw_11406_pu.csv) qmult = (file=../../../../../profiles/res_kvar_11406_pu.csv)

New Loadshape.res_kw_2543_pu npts= 35040 interval=0.25 mult = (file=../../../../../profiles/res_kw_2543_pu.csv) qmult = (file=../../../../../profiles/res_kvar_2543_pu.csv)

New Loadshape.res_kw_9628_pu npts= 35040 interval=0.25 mult = (file=../../../../../profiles/res_kw_9628_pu.csv) qmult = (file=../../../../../profiles/res_kvar_9628_pu.csv)

New Loadshape.res_kw_5640_pu npts= 35040 interval=0.25 mult = (file=../../../../../profiles/res_kw_5640_pu.csv) qmult = (file=../../../../../profiles/res_kvar_5640_pu.csv)

New Loadshape.res_kw_12343_pu npts= 35040 interval=0.25 mult = (file=../../../../../profiles/res_kw_12343_pu.csv) qmult = (file=../../../../../profiles/res_kvar_12343_pu.csv)

New Loadshape.res_kw_2021_pu npts= 35040 interval=0.25 mult = (file=../../../../../profiles/res_kw_2021_pu.csv) qmult = (file=../../../../../profiles/res_kvar_2021_pu.csv)

New Loadshape.res_kw_11798_pu npts= 35040 interval=0.25 mult = (file=../../../../../profiles/res_kw_11798_pu.csv) qmult = (file=../../../../../profiles/res_kvar_11798_pu.csv)

New Loadshape.res_kw_11306_pu npts= 35040 interval=0.25 mult = (file=../../../../../profiles/res_kw_11306_pu.csv) qmult = (file=../../../../../profiles/res_kvar_11306_pu.csv)

New Loadshape.res_kw_200_pu npts= 35040 interval=0.25 mult = (file=../../../../../profiles/res_kw_200_pu.csv) qmult = (file=../../../../../profiles/res_kvar_200_pu.csv)

New Loadshape.res_kw_7043_pu npts= 35040 interval=0.25 mult = (file=../../../../../profiles/res_kw_7043_pu.csv) qmult = (file=../../../../../profiles/res_kvar_7043_pu.csv)

New Loadshape.res_kw_9131_pu npts= 35040 interval=0.25 mult = (file=../../../../../profiles/res_kw_9131_pu.csv) qmult = (file=../../../../../profiles/res_kvar_9131_pu.csv)

New Loadshape.res_kw_6389_pu npts= 35040 interval=0.25 mult = (file=../../../../../profiles/res_kw_6389_pu.csv) qmult = (file=../../../../../profiles/res_kvar_6389_pu.csv)

New Loadshape.res_kw_10304_pu npts= 35040 interval=0.25 mult = (file=../../../../../profiles/res_kw_10304_pu.csv) qmult = (file=../../../../../profiles/res_kvar_10304_pu.csv)

New Loadshape.res_kw_12911_pu npts= 35040 interval=0.25 mult = (file=../../../../../profiles/res_kw_12911_pu.csv) qmult = (file=../../../../../profiles/res_kvar_12911_pu.csv)

New Loadshape.res_kw_12681_pu npts= 35040 interval=0.25 mult = (file=../../../../../profiles/res_kw_12681_pu.csv) qmult = (file=../../../../../profiles/res_kvar_12681_pu.csv)

New Loadshape.res_kw_13091_pu npts= 35040 interval=0.25 mult = (file=../../../../../profiles/res_kw_13091_pu.csv) qmult = (file=../../../../../profiles/res_kvar_13091_pu.csv)

New Loadshape.res_kw_1476_pu npts= 35040 interval=0.25 mult = (file=../../../../../profiles/res_kw_1476_pu.csv) qmult = (file=../../../../../profiles/res_kvar_1476_pu.csv)

New Loadshape.res_kw_2603_pu npts= 35040 interval=0.25 mult = (file=../../../../../profiles/res_kw_2603_pu.csv) qmult = (file=../../../../../profiles/res_kvar_2603_pu.csv)

New Loadshape.res_kw_12447_pu npts= 35040 interval=0.25 mult = (file=../../../../../profiles/res_kw_12447_pu.csv) qmult = (file=../../../../../profiles/res_kvar_12447_pu.csv)

New Loadshape.res_kw_1171_pu npts= 35040 interval=0.25 mult = (file=../../../../../profiles/res_kw_1171_pu.csv) qmult = (file=../../../../../profiles/res_kvar_1171_pu.csv)

New Loadshape.res_kw_12615_pu npts= 35040 interval=0.25 mult = (file=../../../../../profiles/res_kw_12615_pu.csv) qmult = (file=../../../../../profiles/res_kvar_12615_pu.csv)

New Loadshape.res_kw_2544_pu npts= 35040 interval=0.25 mult = (file=../../../../../profiles/res_kw_2544_pu.csv) qmult = (file=../../../../../profiles/res_kvar_2544_pu.csv)

New Loadshape.res_kw_15001_pu npts= 35040 interval=0.25 mult = (file=../../../../../profiles/res_kw_15001_pu.csv) qmult = (file=../../../../../profiles/res_kvar_15001_pu.csv)

New Loadshape.res_kw_6496_pu npts= 35040 interval=0.25 mult = (file=../../../../../profiles/res_kw_6496_pu.csv) qmult = (file=../../../../../profiles/res_kvar_6496_pu.csv)

New Loadshape.res_kw_13477_pu npts= 35040 interval=0.25 mult = (file=../../../../../profiles/res_kw_13477_pu.csv) qmult = (file=../../../../../profiles/res_kvar_13477_pu.csv)

New Loadshape.res_kw_14085_pu npts= 35040 interval=0.25 mult = (file=../../../../../profiles/res_kw_14085_pu.csv) qmult = (file=../../../../../profiles/res_kvar_14085_pu.csv)

New Loadshape.res_kw_10905_pu npts= 35040 interval=0.25 mult = (file=../../../../../profiles/res_kw_10905_pu.csv) qmult = (file=../../../../../profiles/res_kvar_10905_pu.csv)

New Loadshape.res_kw_7838_pu npts= 35040 interval=0.25 mult = (file=../../../../../profiles/res_kw_7838_pu.csv) qmult = (file=../../../../../profiles/res_kvar_7838_pu.csv)

New Loadshape.res_kw_14529_pu npts= 35040 interval=0.25 mult = (file=../../../../../profiles/res_kw_14529_pu.csv) qmult = (file=../../../../../profiles/res_kvar_14529_pu.csv)

New Loadshape.res_kw_12755_pu npts= 35040 interval=0.25 mult = (file=../../../../../profiles/res_kw_12755_pu.csv) qmult = (file=../../../../../profiles/res_kvar_12755_pu.csv)

New Loadshape.res_kw_2282_pu npts= 35040 interval=0.25 mult = (file=../../../../../profiles/res_kw_2282_pu.csv) qmult = (file=../../../../../profiles/res_kvar_2282_pu.csv)

New Loadshape.res_kw_5183_pu npts= 35040 interval=0.25 mult = (file=../../../../../profiles/res_kw_5183_pu.csv) qmult = (file=../../../../../profiles/res_kvar_5183_pu.csv)

New Loadshape.res_kw_12242_pu npts= 35040 interval=0.25 mult = (file=../../../../../profiles/res_kw_12242_pu.csv) qmult = (file=../../../../../profiles/res_kvar_12242_pu.csv)

New Loadshape.res_kw_2763_pu npts= 35040 interval=0.25 mult = (file=../../../../../profiles/res_kw_2763_pu.csv) qmult = (file=../../../../../profiles/res_kvar_2763_pu.csv)

New Loadshape.res_kw_5722_pu npts= 35040 interval=0.25 mult = (file=../../../../../profiles/res_kw_5722_pu.csv) qmult = (file=../../../../../profiles/res_kvar_5722_pu.csv)

New Loadshape.res_kw_3707_pu npts= 35040 interval=0.25 mult = (file=../../../../../profiles/res_kw_3707_pu.csv) qmult = (file=../../../../../profiles/res_kvar_3707_pu.csv)

New Loadshape.res_kw_8466_pu npts= 35040 interval=0.25 mult = (file=../../../../../profiles/res_kw_8466_pu.csv) qmult = (file=../../../../../profiles/res_kvar_8466_pu.csv)

New Loadshape.res_kw_6196_pu npts= 35040 interval=0.25 mult = (file=../../../../../profiles/res_kw_6196_pu.csv) qmult = (file=../../../../../profiles/res_kvar_6196_pu.csv)

New Loadshape.res_kw_2084_pu npts= 35040 interval=0.25 mult = (file=../../../../../profiles/res_kw_2084_pu.csv) qmult = (file=../../../../../profiles/res_kvar_2084_pu.csv)

New Loadshape.res_kw_4922_pu npts= 35040 interval=0.25 mult = (file=../../../../../profiles/res_kw_4922_pu.csv) qmult = (file=../../../../../profiles/res_kvar_4922_pu.csv)

New Loadshape.res_kw_8925_pu npts= 35040 interval=0.25 mult = (file=../../../../../profiles/res_kw_8925_pu.csv) qmult = (file=../../../../../profiles/res_kvar_8925_pu.csv)

New Loadshape.res_kw_643_pu npts= 35040 interval=0.25 mult = (file=../../../../../profiles/res_kw_643_pu.csv) qmult = (file=../../../../../profiles/res_kvar_643_pu.csv)

New Loadshape.res_kw_4677_pu npts= 35040 interval=0.25 mult = (file=../../../../../profiles/res_kw_4677_pu.csv) qmult = (file=../../../../../profiles/res_kvar_4677_pu.csv)

New Loadshape.res_kw_2750_pu npts= 35040 interval=0.25 mult = (file=../../../../../profiles/res_kw_2750_pu.csv) qmult = (file=../../../../../profiles/res_kvar_2750_pu.csv)

New Loadshape.res_kw_6802_pu npts= 35040 interval=0.25 mult = (file=../../../../../profiles/res_kw_6802_pu.csv) qmult = (file=../../../../../profiles/res_kvar_6802_pu.csv)

New Loadshape.res_kw_119_pu npts= 35040 interval=0.25 mult = (file=../../../../../profiles/res_kw_119_pu.csv) qmult = (file=../../../../../profiles/res_kvar_119_pu.csv)

New Loadshape.res_kw_7616_pu npts= 35040 interval=0.25 mult = (file=../../../../../profiles/res_kw_7616_pu.csv) qmult = (file=../../../../../profiles/res_kvar_7616_pu.csv)

New Loadshape.res_kw_7362_pu npts= 35040 interval=0.25 mult = (file=../../../../../profiles/res_kw_7362_pu.csv) qmult = (file=../../../../../profiles/res_kvar_7362_pu.csv)

New Loadshape.res_kw_11737_pu npts= 35040 interval=0.25 mult = (file=../../../../../profiles/res_kw_11737_pu.csv) qmult = (file=../../../../../profiles/res_kvar_11737_pu.csv)

New Loadshape.res_kw_239_pu npts= 35040 interval=0.25 mult = (file=../../../../../profiles/res_kw_239_pu.csv) qmult = (file=../../../../../profiles/res_kvar_239_pu.csv)

New Loadshape.res_kw_610_pu npts= 35040 interval=0.25 mult = (file=../../../../../profiles/res_kw_610_pu.csv) qmult = (file=../../../../../profiles/res_kvar_610_pu.csv)

New Loadshape.res_kw_14862_pu npts= 35040 interval=0.25 mult = (file=../../../../../profiles/res_kw_14862_pu.csv) qmult = (file=../../../../../profiles/res_kvar_14862_pu.csv)

New Loadshape.res_kw_1989_pu npts= 35040 interval=0.25 mult = (file=../../../../../profiles/res_kw_1989_pu.csv) qmult = (file=../../../../../profiles/res_kvar_1989_pu.csv)

New Loadshape.res_kw_5417_pu npts= 35040 interval=0.25 mult = (file=../../../../../profiles/res_kw_5417_pu.csv) qmult = (file=../../../../../profiles/res_kvar_5417_pu.csv)

New Loadshape.res_kw_9871_pu npts= 35040 interval=0.25 mult = (file=../../../../../profiles/res_kw_9871_pu.csv) qmult = (file=../../../../../profiles/res_kvar_9871_pu.csv)

New Loadshape.res_kw_13744_pu npts= 35040 interval=0.25 mult = (file=../../../../../profiles/res_kw_13744_pu.csv) qmult = (file=../../../../../profiles/res_kvar_13744_pu.csv)

New Loadshape.res_kw_5091_pu npts= 35040 interval=0.25 mult = (file=../../../../../profiles/res_kw_5091_pu.csv) qmult = (file=../../../../../profiles/res_kvar_5091_pu.csv)

New Loadshape.res_kw_10341_pu npts= 35040 interval=0.25 mult = (file=../../../../../profiles/res_kw_10341_pu.csv) qmult = (file=../../../../../profiles/res_kvar_10341_pu.csv)

New Loadshape.res_kw_14615_pu npts= 35040 interval=0.25 mult = (file=../../../../../profiles/res_kw_14615_pu.csv) qmult = (file=../../../../../profiles/res_kvar_14615_pu.csv)

New Loadshape.res_kw_1949_pu npts= 35040 interval=0.25 mult = (file=../../../../../profiles/res_kw_1949_pu.csv) qmult = (file=../../../../../profiles/res_kvar_1949_pu.csv)

New Loadshape.res_kw_6602_pu npts= 35040 interval=0.25 mult = (file=../../../../../profiles/res_kw_6602_pu.csv) qmult = (file=../../../../../profiles/res_kvar_6602_pu.csv)

New Loadshape.res_kw_600_pu npts= 35040 interval=0.25 mult = (file=../../../../../profiles/res_kw_600_pu.csv) qmult = (file=../../../../../profiles/res_kvar_600_pu.csv)

New Loadshape.res_kw_7757_pu npts= 35040 interval=0.25 mult = (file=../../../../../profiles/res_kw_7757_pu.csv) qmult = (file=../../../../../profiles/res_kvar_7757_pu.csv)

New Loadshape.res_kw_3430_pu npts= 35040 interval=0.25 mult = (file=../../../../../profiles/res_kw_3430_pu.csv) qmult = (file=../../../../../profiles/res_kvar_3430_pu.csv)

New Loadshape.res_kw_1089_pu npts= 35040 interval=0.25 mult = (file=../../../../../profiles/res_kw_1089_pu.csv) qmult = (file=../../../../../profiles/res_kvar_1089_pu.csv)

New Loadshape.res_kw_3977_pu npts= 35040 interval=0.25 mult = (file=../../../../../profiles/res_kw_3977_pu.csv) qmult = (file=../../../../../profiles/res_kvar_3977_pu.csv)

New Loadshape.res_kw_11106_pu npts= 35040 interval=0.25 mult = (file=../../../../../profiles/res_kw_11106_pu.csv) qmult = (file=../../../../../profiles/res_kvar_11106_pu.csv)
