New Line.l(r:p17udt609lv-p17ulv2076) Units=km Length=0.010809200000000001 bus1=p17udt609lv.1.2 bus2=p17ulv2076.1.2 switch=n enabled=y phases=2 Linecode=1P_OH_AL_2/0_Rucina_2

New Line.l(r:p17udt609lv-p17ulv2384) Units=km Length=0.0183404 bus1=p17udt609lv.1.2 bus2=p17ulv2384.1.2 switch=n enabled=y phases=2 Linecode=1P_OH_AL_2/0_Rucina_2

New Line.l(r:p17udm2402-p17ulv2081) Units=km Length=0.0119113 bus1=p17udm2402.1.2 bus2=p17ulv2081.1.2 switch=n enabled=y phases=2 Linecode=1P_UG_AL_1/0_Brenau_2

New Line.l(r:p17udm2402-p17udt614lv) Units=km Length=0.009800620000000001 bus1=p17udt614lv.1.2 bus2=p17udm2402.1.2 switch=n enabled=y phases=2 Linecode=1P_UG_AL_1/0_Brenau_2

New Line.l(r:p17udm2404-p17ulv2419) Units=km Length=0.0114944 bus1=p17udm2404.1.2 bus2=p17ulv2419.1.2 switch=n enabled=y phases=2 Linecode=1P_UG_AL_1/0_Brenau_2

New Line.l(r:p17udm2403-p17ulv2212) Units=km Length=0.0108135 bus1=p17udm2403.1.2 bus2=p17ulv2212.1.2 switch=n enabled=y phases=2 Linecode=1P_UG_AL_1/0_Brenau_2

New Line.l(r:p17udm2403-p17udm2404) Units=km Length=0.0555718 bus1=p17udm2404.1.2 bus2=p17udm2403.1.2 switch=n enabled=y phases=2 Linecode=1P_UG_AL_1/0_Brenau_2

New Line.l(r:p17udm2404-p17udt614lv) Units=km Length=0.0391313 bus1=p17udt614lv.1.2 bus2=p17udm2404.1.2 switch=n enabled=y phases=2 Linecode=1P_UG_AL_1/0_Brenau_2

New Line.l(r:p17udm2429-p17ulv2090) Units=km Length=0.0103619 bus1=p17udm2429.1.2 bus2=p17ulv2090.1.2 switch=n enabled=y phases=2 Linecode=1P_OH_AL_2/0_Rucina_2

New Line.l(r:p17udm2429-p17udt621lv) Units=km Length=0.0163883 bus1=p17udt621lv.1.2 bus2=p17udm2429.1.2 switch=n enabled=y phases=2 Linecode=1P_OH_AL_2/0_Rucina_2

New Line.l(r:p17udm2430-p17ulv2504) Units=km Length=0.0126653 bus1=p17udm2430.1.2 bus2=p17ulv2504.1.2 switch=n enabled=y phases=2 Linecode=1P_OH_AL_2/0_Rucina_2

New Line.l(r:p17udm2430-p17udt621lv) Units=km Length=0.102476 bus1=p17udt621lv.1.2 bus2=p17udm2430.1.2 switch=n enabled=y phases=2 Linecode=1P_OH_AL_4/0_Zuzara_2

New Line.l(r:p17udt643lv-p17ulv2116) Units=km Length=0.013197500000000001 bus1=p17udt643lv.1.2 bus2=p17ulv2116.1.2 switch=n enabled=y phases=2 Linecode=1P_UG_AL_1/0_Brenau_2

New Line.l(r:p17udt643lv-p17ulv2567) Units=km Length=0.0127463 bus1=p17udt643lv.1.2 bus2=p17ulv2567.1.2 switch=n enabled=y phases=2 Linecode=1P_UG_AL_1/0_Brenau_2

New Line.l(r:p17udt655lv-p17ulv2518) Units=km Length=0.016900400000000003 bus1=p17udt655lv.1.2 bus2=p17ulv2518.1.2 switch=n enabled=y phases=2 Linecode=1P_OH_AL_2/0_Rucina_2

New Line.l(r:p17udm2612-p17ulv2130) Units=km Length=0.0121871 bus1=p17udm2612.1.2 bus2=p17ulv2130.1.2 switch=n enabled=y phases=2 Linecode=1P_OH_AL_2/0_Rucina_2

New Line.l(r:p17udm2612-p17ulv2464) Units=km Length=0.0177046 bus1=p17udm2612.1.2 bus2=p17ulv2464.1.2 switch=n enabled=y phases=2 Linecode=1P_OH_AL_2/0_Rucina_2

New Line.l(r:p17udm2615-p17ulv2544) Units=km Length=0.0116217 bus1=p17udm2615.1.2 bus2=p17ulv2544.1.2 switch=n enabled=y phases=2 Linecode=1P_OH_AL_2/0_Rucina_2

New Line.l(r:p17udm2612-p17udm2615) Units=km Length=0.0140731 bus1=p17udm2612.1.2 bus2=p17udm2615.1.2 switch=n enabled=y phases=2 Linecode=1P_OH_AL_2/0_Rucina_2

New Line.l(r:p17udm2612-p17udt655lv) Units=km Length=0.014064700000000001 bus1=p17udt655lv.1.2 bus2=p17udm2612.1.2 switch=n enabled=y phases=2 Linecode=1P_OH_AL_2/0_Rucina_2

New Line.l(r:p17udm2616-p17ulv28760) Units=km Length=0.0161424 bus1=p17udm2616.1.2 bus2=p17ulv28760.1.2 switch=n enabled=y phases=2 Linecode=1P_OH_AL_2/0_Rucina_2

New Line.l(r:p17udm2616-p17ulv29136) Units=km Length=0.0099977 bus1=p17udm2616.1.2 bus2=p17ulv29136.1.2 switch=n enabled=y phases=2 Linecode=1P_OH_AL_2/0_Rucina_2

New Line.l(r:p17udm2616-p17udt655lv) Units=km Length=0.0461743 bus1=p17udt655lv.1.2 bus2=p17udm2616.1.2 switch=n enabled=y phases=2 Linecode=1P_OH_AL_4/0_Zuzara_2

New Line.l(r:p17udt657lv-p17ulv2133) Units=km Length=0.0151458 bus1=p17udt657lv.1.2 bus2=p17ulv2133.1.2 switch=n enabled=y phases=2 Linecode=1P_OH_AL_2/0_Rucina_2

New Line.l(r:p17udt657lv-p17ulv2412) Units=km Length=0.016738 bus1=p17udt657lv.1.2 bus2=p17ulv2412.1.2 switch=n enabled=y phases=2 Linecode=1P_OH_AL_2/0_Rucina_2

New Line.l(r:p17udm2626-p17ulv2184) Units=km Length=0.014963100000000002 bus1=p17udm2626.1.2 bus2=p17ulv2184.1.2 switch=n enabled=y phases=2 Linecode=1P_OH_AL_2/0_Rucina_2

New Line.l(r:p17udm2626-p17ulv2660) Units=km Length=0.0146247 bus1=p17udm2626.1.2 bus2=p17ulv2660.1.2 switch=n enabled=y phases=2 Linecode=1P_OH_AL_2/0_Rucina_2

New Line.l(r:p17udm2626-p17udt657lv) Units=km Length=0.0199008 bus1=p17udt657lv.1.2 bus2=p17udm2626.1.2 switch=n enabled=y phases=2 Linecode=1P_OH_AL_2/0_Rucina_2

New Line.l(r:p17udm2627-p17ulv2364) Units=km Length=0.0141828 bus1=p17udm2627.1.2 bus2=p17ulv2364.1.2 switch=n enabled=y phases=2 Linecode=1P_OH_AL_2/0_Rucina_2

New Line.l(r:p17udm2630-p17ulv31137) Units=km Length=0.0148454 bus1=p17udm2630.1.2 bus2=p17ulv31137.1.2 switch=n enabled=y phases=2 Linecode=1P_OH_AL_2/0_Rucina_2

New Line.l(r:p17udm2627-p17udm2630) Units=km Length=0.0595254 bus1=p17udm2627.1.2 bus2=p17udm2630.1.2 switch=n enabled=y phases=2 Linecode=1P_OH_AL_4/0_Zuzara_2

New Line.l(r:p17udm2627-p17udt657lv) Units=km Length=0.0593855 bus1=p17udt657lv.1.2 bus2=p17udm2627.1.2 switch=n enabled=y phases=2 Linecode=1P_OH_AL_4/0_Zuzara_2

New Line.l(r:p17udt666lv-p17ulv2533) Units=km Length=0.015881 bus1=p17udt666lv.1.2 bus2=p17ulv2533.1.2 switch=n enabled=y phases=2 Linecode=1P_UG_AL_1/0_Brenau_2

New Line.l(r:p17udm2671-p17ulv2147) Units=km Length=0.012599400000000002 bus1=p17udm2671.1.2 bus2=p17ulv2147.1.2 switch=n enabled=y phases=2 Linecode=1P_UG_AL_1/0_Brenau_2

New Line.l(r:p17udm2671-p17ulv2601) Units=km Length=0.0180814 bus1=p17udm2671.1.2 bus2=p17ulv2601.1.2 switch=n enabled=y phases=2 Linecode=1P_UG_AL_1/0_Brenau_2

New Line.l(r:p17udm2677-p17ulv2639) Units=km Length=0.014838 bus1=p17udm2677.1.2 bus2=p17ulv2639.1.2 switch=n enabled=y phases=2 Linecode=1P_UG_AL_1/0_Brenau_2

New Line.l(r:p17udm2672-p17ulv2160) Units=km Length=0.016452300000000003 bus1=p17udm2672.1.2 bus2=p17ulv2160.1.2 switch=n enabled=y phases=2 Linecode=1P_UG_AL_1/0_Brenau_2

New Line.l(r:p17udm2672-p17udm2677) Units=km Length=0.0357764 bus1=p17udm2677.1.2 bus2=p17udm2672.1.2 switch=n enabled=y phases=2 Linecode=1P_UG_AL_1/0_Brenau_2

New Line.l(r:p17udm2671-p17udm2677) Units=km Length=0.019522200000000003 bus1=p17udm2671.1.2 bus2=p17udm2677.1.2 switch=n enabled=y phases=2 Linecode=1P_UG_AL_2/0_Converse_2

New Line.l(r:p17udm2671-p17udt666lv) Units=km Length=0.00976008 bus1=p17udt666lv.1.2 bus2=p17udm2671.1.2 switch=n enabled=y phases=2 Linecode=1P_UG_AL_4/0_Sweetbriar_2

New Line.l(r:p17udm2675-p17ulv2579) Units=km Length=0.010763 bus1=p17udm2675.1.2 bus2=p17ulv2579.1.2 switch=n enabled=y phases=2 Linecode=1P_UG_AL_1/0_Brenau_2

New Line.l(r:p17udm2673-p17ulv2528) Units=km Length=0.0174822 bus1=p17udm2673.1.2 bus2=p17ulv2528.1.2 switch=n enabled=y phases=2 Linecode=1P_UG_AL_1/0_Brenau_2

New Line.l(r:p17udm2673-p17ulv2641) Units=km Length=0.011571200000000002 bus1=p17udm2673.1.2 bus2=p17ulv2641.1.2 switch=n enabled=y phases=2 Linecode=1P_UG_AL_1/0_Brenau_2

New Line.l(r:p17udm2673-p17udm2675) Units=km Length=0.00976005 bus1=p17udm2675.1.2 bus2=p17udm2673.1.2 switch=n enabled=y phases=2 Linecode=1P_UG_AL_1/0_Brenau_2

New Line.l(r:p17udm2675-p17udt666lv) Units=km Length=0.0195301 bus1=p17udt666lv.1.2 bus2=p17udm2675.1.2 switch=n enabled=y phases=2 Linecode=1P_UG_AL_4/0_Sweetbriar_2

New Line.l(r:p17udt668lv-p17ulv2150) Units=km Length=0.0158704 bus1=p17udt668lv.1.2 bus2=p17ulv2150.1.2 switch=n enabled=y phases=2 Linecode=1P_OH_AL_2/0_Rucina_2

New Line.l(r:p17udt668lv-p17ulv2656) Units=km Length=0.014549 bus1=p17udt668lv.1.2 bus2=p17ulv2656.1.2 switch=n enabled=y phases=2 Linecode=1P_OH_AL_2/0_Rucina_2

New Line.l(r:p17udm2683-p17ulv2196) Units=km Length=0.0155722 bus1=p17udm2683.1.2 bus2=p17ulv2196.1.2 switch=n enabled=y phases=2 Linecode=1P_OH_AL_2/0_Rucina_2

New Line.l(r:p17udm2683-p17ulv2477) Units=km Length=0.0133322 bus1=p17udm2683.1.2 bus2=p17ulv2477.1.2 switch=n enabled=y phases=2 Linecode=1P_OH_AL_2/0_Rucina_2

New Line.l(r:p17udm2683-p17udt668lv) Units=km Length=0.0199008 bus1=p17udt668lv.1.2 bus2=p17udm2683.1.2 switch=n enabled=y phases=2 Linecode=1P_OH_AL_2/0_Rucina_2

New Line.l(r:p17udm2684-p17ulv2342) Units=km Length=0.015504900000000002 bus1=p17udm2684.1.2 bus2=p17ulv2342.1.2 switch=n enabled=y phases=2 Linecode=1P_OH_AL_2/0_Rucina_2

New Line.l(r:p17udm2684-p17ulv2480) Units=km Length=0.0136946 bus1=p17udm2684.1.2 bus2=p17ulv2480.1.2 switch=n enabled=y phases=2 Linecode=1P_OH_AL_2/0_Rucina_2

New Line.l(r:p17udm2684-p17udt668lv) Units=km Length=0.0199008 bus1=p17udt668lv.1.2 bus2=p17udm2684.1.2 switch=n enabled=y phases=2 Linecode=1P_OH_AL_2/0_Rucina_2

New Line.l(r:p17udt670lv-p17ulv2152) Units=km Length=0.0165415 bus1=p17udt670lv.1.2 bus2=p17ulv2152.1.2 switch=n enabled=y phases=2 Linecode=1P_OH_AL_2/0_Rucina_2

New Line.l(r:p17udt670lv-p17ulv2211) Units=km Length=0.0179663 bus1=p17udt670lv.1.2 bus2=p17ulv2211.1.2 switch=n enabled=y phases=2 Linecode=1P_OH_AL_2/0_Rucina_2

New Line.l(r:p17udt670lv-p17ulv2553) Units=km Length=0.017294 bus1=p17udt670lv.1.2 bus2=p17ulv2553.1.2 switch=n enabled=y phases=2 Linecode=1P_OH_AL_2/0_Rucina_2

New Line.l(r:p17udm2696-p17ulv2179) Units=km Length=0.0134242 bus1=p17udm2696.1.2 bus2=p17ulv2179.1.2 switch=n enabled=y phases=2 Linecode=1P_OH_AL_2/0_Rucina_2

New Line.l(r:p17udm2696-p17udt670lv) Units=km Length=0.0557221 bus1=p17udt670lv.1.2 bus2=p17udm2696.1.2 switch=n enabled=y phases=2 Linecode=1P_OH_AL_4/0_Zuzara_2

New Line.l(r:p17udt673lv-p17ulv2156) Units=km Length=0.021146600000000005 bus1=p17udt673lv.1.2 bus2=p17ulv2156.1.2 switch=n enabled=y phases=2 Linecode=1P_UG_AL_1/0_Brenau_2

New Line.l(r:p17udt673lv-p17ulv2448) Units=km Length=0.0250533 bus1=p17udt673lv.1.2 bus2=p17ulv2448.1.2 switch=n enabled=y phases=2 Linecode=1P_UG_AL_1/0_Brenau_2

New Line.l(r:p17udt673lv-p17ulv2472) Units=km Length=0.026440500000000002 bus1=p17udt673lv.1.2 bus2=p17ulv2472.1.2 switch=n enabled=y phases=2 Linecode=1P_UG_AL_1/0_Brenau_2

New Line.l(r:p17udm2711-p17ulv2390) Units=km Length=0.0159346 bus1=p17udm2711.1.2 bus2=p17ulv2390.1.2 switch=n enabled=y phases=2 Linecode=1P_OH_AL_2/0_Rucina_2

New Line.l(r:p17udm2711-p17udt673lv) Units=km Length=0.10575800000000002 bus1=p17udt673lv.1.2 bus2=p17udm2711.1.2 switch=n enabled=y phases=2 Linecode=1P_OH_AL_4/0_Zuzara_2

New Line.l(r:p17udm2762-p17ulv2185) Units=km Length=0.010961 bus1=p17udm2762.1.2 bus2=p17ulv2185.1.2 switch=n enabled=y phases=2 Linecode=1P_OH_AL_2/0_Rucina_2

New Line.l(r:p17udm2762-p17ulv2722) Units=km Length=0.0146611 bus1=p17udm2762.1.2 bus2=p17ulv2722.1.2 switch=n enabled=y phases=2 Linecode=1P_OH_AL_2/0_Rucina_2

New Line.l(r:p17udm2762-p17udt683lv) Units=km Length=0.0199758 bus1=p17udt683lv.1.2 bus2=p17udm2762.1.2 switch=n enabled=y phases=2 Linecode=1P_OH_AL_2/0_Rucina_2

New Line.l(r:p17udm2764-p17ulv31123) Units=km Length=0.0147601 bus1=p17udm2764.1.2 bus2=p17ulv31123.1.2 switch=n enabled=y phases=2 Linecode=1P_OH_AL_2/0_Rucina_2

New Line.l(r:p17udm2764-p17udt683lv) Units=km Length=0.019965500000000004 bus1=p17udt683lv.1.2 bus2=p17udm2764.1.2 switch=n enabled=y phases=2 Linecode=1P_OH_AL_2/0_Rucina_2

New Line.l(r:p17udt687lv-p17ulv2197) Units=km Length=0.0148349 bus1=p17udt687lv.1.2 bus2=p17ulv2197.1.2 switch=n enabled=y phases=2 Linecode=1P_OH_AL_2/0_Rucina_2

New Line.l(r:p17udt687lv-p17ulv2629) Units=km Length=0.013781000000000002 bus1=p17udt687lv.1.2 bus2=p17ulv2629.1.2 switch=n enabled=y phases=2 Linecode=1P_OH_AL_2/0_Rucina_2

New Line.l(r:p17udm2781-p17ulv2503) Units=km Length=0.015351900000000002 bus1=p17udm2781.1.2 bus2=p17ulv2503.1.2 switch=n enabled=y phases=2 Linecode=1P_OH_AL_2/0_Rucina_2

New Line.l(r:p17udm2781-p17udt687lv) Units=km Length=0.0188469 bus1=p17udt687lv.1.2 bus2=p17udm2781.1.2 switch=n enabled=y phases=2 Linecode=1P_OH_AL_2/0_Rucina_2

New Line.l(r:p17udt689lv-p17ulv2201) Units=km Length=0.02569 bus1=p17udt689lv.1.2 bus2=p17ulv2201.1.2 switch=n enabled=y phases=2 Linecode=1P_OH_AL_2/0_Rucina_2

New Line.l(r:p17udt689lv-p17ulv2661) Units=km Length=0.0160648 bus1=p17udt689lv.1.2 bus2=p17ulv2661.1.2 switch=n enabled=y phases=2 Linecode=1P_OH_AL_2/0_Rucina_2

New Line.l(r:p17udm2791-p17ulv2487) Units=km Length=0.0227309 bus1=p17udm2791.1.2 bus2=p17ulv2487.1.2 switch=n enabled=y phases=2 Linecode=1P_OH_AL_2/0_Rucina_2

New Line.l(r:p17udm2791-p17udt689lv) Units=km Length=0.00495066 bus1=p17udt689lv.1.2 bus2=p17udm2791.1.2 switch=n enabled=y phases=2 Linecode=1P_OH_AL_2/0_Rucina_2

New Line.l(r:p17udm2819-p17ulv2223) Units=km Length=0.0147957 bus1=p17udm2819.1.2 bus2=p17ulv2223.1.2 switch=n enabled=y phases=2 Linecode=1P_OH_AL_2/0_Rucina_2

New Line.l(r:p17udm2819-p17ulv2423) Units=km Length=0.0134048 bus1=p17udm2819.1.2 bus2=p17ulv2423.1.2 switch=n enabled=y phases=2 Linecode=1P_OH_AL_2/0_Rucina_2

New Line.l(r:p17udm2820-p17ulv2301) Units=km Length=0.0142138 bus1=p17udm2820.1.2 bus2=p17ulv2301.1.2 switch=n enabled=y phases=2 Linecode=1P_OH_AL_2/0_Rucina_2

New Line.l(r:p17udm2820-p17ulv2463) Units=km Length=0.0147853 bus1=p17udm2820.1.2 bus2=p17ulv2463.1.2 switch=n enabled=y phases=2 Linecode=1P_OH_AL_2/0_Rucina_2

New Line.l(r:p17udm2819-p17udm2820) Units=km Length=0.0198908 bus1=p17udm2819.1.2 bus2=p17udm2820.1.2 switch=n enabled=y phases=2 Linecode=1P_OH_AL_2/0_Rucina_2

New Line.l(r:p17udm2819-p17udt697lv) Units=km Length=0.0199008 bus1=p17udt697lv.1.2 bus2=p17udm2819.1.2 switch=n enabled=y phases=2 Linecode=1P_OH_AL_2/0_Rucina_2

New Line.l(r:p17udm2821-p17ulv2415) Units=km Length=0.015160100000000001 bus1=p17udm2821.1.2 bus2=p17ulv2415.1.2 switch=n enabled=y phases=2 Linecode=1P_OH_AL_2/0_Rucina_2

New Line.l(r:p17udm2821-p17ulv2650) Units=km Length=0.0136188 bus1=p17udm2821.1.2 bus2=p17ulv2650.1.2 switch=n enabled=y phases=2 Linecode=1P_OH_AL_2/0_Rucina_2

New Line.l(r:p17udm2821-p17udt697lv) Units=km Length=0.0597024 bus1=p17udt697lv.1.2 bus2=p17udm2821.1.2 switch=n enabled=y phases=2 Linecode=1P_OH_AL_4/0_Zuzara_2

New Line.l(r:p17udt704lv-p17ulv2240) Units=km Length=0.0226615 bus1=p17udt704lv.1.2 bus2=p17ulv2240.1.2 switch=n enabled=y phases=2 Linecode=1P_OH_AL_2/0_Rucina_2

New Line.l(r:p17udt704lv-p17ulv2514) Units=km Length=0.021420400000000003 bus1=p17udt704lv.1.2 bus2=p17ulv2514.1.2 switch=n enabled=y phases=2 Linecode=1P_OH_AL_2/0_Rucina_2

New Line.l(r:p17udm2851-p17ulv2288) Units=km Length=0.0148216 bus1=p17udm2851.1.2 bus2=p17ulv2288.1.2 switch=n enabled=y phases=2 Linecode=1P_OH_AL_2/0_Rucina_2

New Line.l(r:p17udm2851-p17udt704lv) Units=km Length=0.0167832 bus1=p17udt704lv.1.2 bus2=p17udm2851.1.2 switch=n enabled=y phases=2 Linecode=1P_OH_AL_2/0_Rucina_2

New Line.l(r:p17udt705lv-p17ulv2243) Units=km Length=0.0119779 bus1=p17udt705lv.1.2 bus2=p17ulv2243.1.2 switch=n enabled=y phases=2 Linecode=1P_OH_AL_2/0_Rucina_2

New Line.l(r:p17udt705lv-p17ulv2721) Units=km Length=0.0189457 bus1=p17udt705lv.1.2 bus2=p17ulv2721.1.2 switch=n enabled=y phases=2 Linecode=1P_OH_AL_2/0_Rucina_2

New Line.l(r:p17udm2854-p17ulv2678) Units=km Length=0.0113726 bus1=p17udm2854.1.2 bus2=p17ulv2678.1.2 switch=n enabled=y phases=2 Linecode=1P_OH_AL_2/0_Rucina_2

New Line.l(r:p17udm2854-p17udt705lv) Units=km Length=0.0194219 bus1=p17udt705lv.1.2 bus2=p17udm2854.1.2 switch=n enabled=y phases=2 Linecode=1P_OH_AL_2/0_Rucina_2

New Line.l(r:p17udt709lv-p17ulv2260) Units=km Length=0.0166107 bus1=p17udt709lv.1.2 bus2=p17ulv2260.1.2 switch=n enabled=y phases=2 Linecode=1P_OH_AL_2/0_Rucina_2

New Line.l(r:p17udt709lv-p17ulv2442) Units=km Length=0.0095794 bus1=p17udt709lv.1.2 bus2=p17ulv2442.1.2 switch=n enabled=y phases=2 Linecode=1P_OH_AL_2/0_Rucina_2

New Line.l(r:p17udm2869-p17ulv2285) Units=km Length=0.0103515 bus1=p17udm2869.1.2 bus2=p17ulv2285.1.2 switch=n enabled=y phases=2 Linecode=1P_OH_AL_2/0_Rucina_2

New Line.l(r:p17udm2869-p17udt709lv) Units=km Length=0.016268600000000005 bus1=p17udt709lv.1.2 bus2=p17udm2869.1.2 switch=n enabled=y phases=2 Linecode=1P_OH_AL_2/0_Rucina_2

New Line.l(r:p17udt713lv-p17ulv2550) Units=km Length=0.0136676 bus1=p17udt713lv.1.2 bus2=p17ulv2550.1.2 switch=n enabled=y phases=2 Linecode=1P_OH_AL_2/0_Rucina_2

New Line.l(r:p17udm2884-p17ulv2272) Units=km Length=0.0173203 bus1=p17udm2884.1.2 bus2=p17ulv2272.1.2 switch=n enabled=y phases=2 Linecode=1P_OH_AL_2/0_Rucina_2

New Line.l(r:p17udm2884-p17udt713lv) Units=km Length=0.010931 bus1=p17udt713lv.1.2 bus2=p17udm2884.1.2 switch=n enabled=y phases=2 Linecode=1P_OH_AL_2/0_Rucina_2

New Line.l(r:p17udm2885-p17ulv2403) Units=km Length=0.0139498 bus1=p17udm2885.1.2 bus2=p17ulv2403.1.2 switch=n enabled=y phases=2 Linecode=1P_OH_AL_2/0_Rucina_2

New Line.l(r:p17udm2885-p17udt713lv) Units=km Length=0.015257 bus1=p17udt713lv.1.2 bus2=p17udm2885.1.2 switch=n enabled=y phases=2 Linecode=1P_OH_AL_2/0_Rucina_2

New Line.l(r:p17udt737lv-p17ulv2372) Units=km Length=0.0210797 bus1=p17udt737lv.1.2 bus2=p17ulv2372.1.2 switch=n enabled=y phases=2 Linecode=1P_OH_AL_2/0_Rucina_2

New Line.l(r:p17udt737lv-p17ulv2619) Units=km Length=0.025108 bus1=p17udt737lv.1.2 bus2=p17ulv2619.1.2 switch=n enabled=y phases=2 Linecode=1P_OH_AL_2/0_Rucina_2

New Line.l(r:p17udm2981-p17ulv2547) Units=km Length=0.0181461 bus1=p17udm2981.1.2 bus2=p17ulv2547.1.2 switch=n enabled=y phases=2 Linecode=1P_OH_AL_2/0_Rucina_2

New Line.l(r:p17udm2981-p17udt737lv) Units=km Length=0.0162786 bus1=p17udt737lv.1.2 bus2=p17udm2981.1.2 switch=n enabled=y phases=2 Linecode=1P_OH_AL_2/0_Rucina_2

New Line.l(r:p17udm2996-p17ulv2416) Units=km Length=0.0280572 bus1=p17udm2996.1.2 bus2=p17ulv2416.1.2 switch=n enabled=y phases=2 Linecode=1P_OH_AL_4/0_Zuzara_2

New Line.l(r:p17udm2996-p17udt744lv) Units=km Length=0.037888 bus1=p17udt744lv.1.2 bus2=p17udm2996.1.2 switch=n enabled=y phases=2 Linecode=1P_OH_AL_4/0_Zuzara_2

New Line.l(r:p17udm2997-p17ulv2438) Units=km Length=0.0149213 bus1=p17udm2997.1.2 bus2=p17ulv2438.1.2 switch=n enabled=y phases=2 Linecode=1P_OH_AL_2/0_Rucina_2

New Line.l(r:p17udm2998-p17ulv2470) Units=km Length=0.0119219 bus1=p17udm2998.1.2 bus2=p17ulv2470.1.2 switch=n enabled=y phases=2 Linecode=1P_OH_AL_2/0_Rucina_2

New Line.l(r:p17udm2997-p17udm2998) Units=km Length=0.0511265 bus1=p17udm2997.1.2 bus2=p17udm2998.1.2 switch=n enabled=y phases=2 Linecode=1P_OH_AL_4/0_Zuzara_2

New Line.l(r:p17udm2997-p17udt744lv) Units=km Length=0.010931 bus1=p17udt744lv.1.2 bus2=p17udm2997.1.2 switch=n enabled=y phases=2 Linecode=1P_OH_AL_2/0_Rucina_2

New Line.l(r:p17udt745lv-p17ulv2426) Units=km Length=0.0179606 bus1=p17udt745lv.1.2 bus2=p17ulv2426.1.2 switch=n enabled=y phases=2 Linecode=1P_OH_AL_2/0_Rucina_2

New Line.l(r:p17udt745lv-p17ulv32662) Units=km Length=0.017766 bus1=p17udt745lv.1.2 bus2=p17ulv32662.1.2 switch=n enabled=y phases=2 Linecode=1P_OH_AL_2/0_Rucina_2

New Line.l(r:p17udt745lv-p17ulv32676) Units=km Length=0.0161226 bus1=p17udt745lv.1.2 bus2=p17ulv32676.1.2 switch=n enabled=y phases=2 Linecode=1P_OH_AL_2/0_Rucina_2

New Line.l(r:p17udt746lv-p17ulv2604) Units=km Length=0.0169952 bus1=p17udt746lv.1.2 bus2=p17ulv2604.1.2 switch=n enabled=y phases=2 Linecode=1P_UG_AL_1/0_Brenau_2

New Line.l(r:p17udt746lv-p17ulv3161) Units=km Length=0.0217124 bus1=p17udt746lv.1.2 bus2=p17ulv3161.1.2 switch=n enabled=y phases=2 Linecode=1P_UG_AL_1/0_Brenau_2

New Line.l(r:p17udt746lv-p17ulv3233) Units=km Length=0.0220393 bus1=p17udt746lv.1.2 bus2=p17ulv3233.1.2 switch=n enabled=y phases=2 Linecode=1P_UG_AL_1/0_Brenau_2

New Line.l(r:p17udm3002-p17ulv2434) Units=km Length=0.0110238 bus1=p17udm3002.1.2 bus2=p17ulv2434.1.2 switch=n enabled=y phases=2 Linecode=1P_UG_AL_1/0_Brenau_2

New Line.l(r:p17udm3002-p17udt746lv) Units=km Length=0.0160484 bus1=p17udt746lv.1.2 bus2=p17udm3002.1.2 switch=n enabled=y phases=2 Linecode=1P_UG_AL_1/0_Brenau_2

New Line.l(r:p17udm3006-p17ulv3339) Units=km Length=0.0127769 bus1=p17udm3006.1.2 bus2=p17ulv3339.1.2 switch=n enabled=y phases=2 Linecode=1P_UG_AL_1/0_Brenau_2

New Line.l(r:p17udm3006-p17udt746lv) Units=km Length=0.00887624 bus1=p17udt746lv.1.2 bus2=p17udm3006.1.2 switch=n enabled=y phases=2 Linecode=1P_UG_AL_1/0_Brenau_2

New Line.l(r:p17udt755lv-p17ulv2510) Units=km Length=0.0100726 bus1=p17udt755lv.1.2 bus2=p17ulv2510.1.2 switch=n enabled=y phases=2 Linecode=1P_OH_AL_2/0_Rucina_2

New Line.l(r:p17udt755lv-p17ulv2666) Units=km Length=0.0197976 bus1=p17udt755lv.1.2 bus2=p17ulv2666.1.2 switch=n enabled=y phases=2 Linecode=1P_OH_AL_2/0_Rucina_2

New Line.l(r:p17udm3028-p17ulv2609) Units=km Length=0.0133583 bus1=p17udm3028.1.2 bus2=p17ulv2609.1.2 switch=n enabled=y phases=2 Linecode=1P_OH_AL_2/0_Rucina_2

New Line.l(r:p17udm3028-p17udt755lv) Units=km Length=0.016027000000000003 bus1=p17udt755lv.1.2 bus2=p17udm3028.1.2 switch=n enabled=y phases=2 Linecode=1P_OH_AL_2/0_Rucina_2

New Line.l(r:p17udt758lv-p17ulv82736) Units=km Length=0.0141246 bus1=p17udt758lv.1.2 bus2=p17ulv82736.1.2 switch=n enabled=y phases=2 Linecode=1P_UG_AL_1/0_Brenau_2

New Line.l(r:p17udm3034-p17ulv2558) Units=km Length=0.014664300000000002 bus1=p17udm3034.1.2 bus2=p17ulv2558.1.2 switch=n enabled=y phases=2 Linecode=1P_UG_AL_1/0_Brenau_2

New Line.l(r:p17udm3035-p17ulv2627) Units=km Length=0.0138997 bus1=p17udm3035.1.2 bus2=p17ulv2627.1.2 switch=n enabled=y phases=2 Linecode=1P_UG_AL_1/0_Brenau_2

New Line.l(r:p17udm3034-p17udm3035) Units=km Length=0.00916092 bus1=p17udm3034.1.2 bus2=p17udm3035.1.2 switch=n enabled=y phases=2 Linecode=1P_UG_AL_1/0_Brenau_2

New Line.l(r:p17udm3034-p17udt758lv) Units=km Length=0.00915079 bus1=p17udt758lv.1.2 bus2=p17udm3034.1.2 switch=n enabled=y phases=2 Linecode=1P_UG_AL_1/0_Brenau_2

New Line.l(r:p17udm3037-p17ulv3215) Units=km Length=0.0140146 bus1=p17udm3037.1.2 bus2=p17ulv3215.1.2 switch=n enabled=y phases=2 Linecode=1P_UG_AL_1/0_Brenau_2

New Line.l(r:p17udm3036-p17ulv2707) Units=km Length=0.0176452 bus1=p17udm3036.1.2 bus2=p17ulv2707.1.2 switch=n enabled=y phases=2 Linecode=1P_UG_AL_1/0_Brenau_2

New Line.l(r:p17udm3036-p17udm3037) Units=km Length=0.018311700000000004 bus1=p17udm3037.1.2 bus2=p17udm3036.1.2 switch=n enabled=y phases=2 Linecode=1P_UG_AL_1/0_Brenau_2

New Line.l(r:p17udm3037-p17udt758lv) Units=km Length=0.00915092 bus1=p17udt758lv.1.2 bus2=p17udm3037.1.2 switch=n enabled=y phases=2 Linecode=1P_UG_AL_2/0_Converse_2

New Line.l(r:p17udt759lv-p17ulv2563) Units=km Length=0.0125101 bus1=p17udt759lv.1.2 bus2=p17ulv2563.1.2 switch=n enabled=y phases=2 Linecode=1P_OH_AL_2/0_Rucina_2

New Line.l(r:p17udt760lv-p17ulv2565) Units=km Length=0.0157092 bus1=p17udt760lv.1.2 bus2=p17ulv2565.1.2 switch=n enabled=y phases=2 Linecode=1P_OH_AL_2/0_Rucina_2

New Line.l(r:p17udt760lv-p17ulv2653) Units=km Length=0.0139066 bus1=p17udt760lv.1.2 bus2=p17ulv2653.1.2 switch=n enabled=y phases=2 Linecode=1P_OH_AL_2/0_Rucina_2

New Line.l(r:p17udt772lv-p17ulv32864) Units=km Length=0.0144049 bus1=p17udt772lv.1.2 bus2=p17ulv32864.1.2 switch=n enabled=y phases=2 Linecode=1P_OH_AL_2/0_Rucina_2

New Line.l(r:p17udm3074-p17ulv2716) Units=km Length=0.0128787 bus1=p17udm3074.1.2 bus2=p17ulv2716.1.2 switch=n enabled=y phases=2 Linecode=1P_OH_AL_2/0_Rucina_2

New Line.l(r:p17udm3074-p17udt772lv) Units=km Length=0.053561000000000004 bus1=p17udt772lv.1.2 bus2=p17udm3074.1.2 switch=n enabled=y phases=2 Linecode=1P_OH_AL_4/0_Zuzara_2

New Line.l(r:p17udm3076-p17ulv32896) Units=km Length=0.0155619 bus1=p17udm3076.1.2 bus2=p17ulv32896.1.2 switch=n enabled=y phases=2 Linecode=1P_OH_AL_2/0_Rucina_2

New Line.l(r:p17udm3076-p17udt772lv) Units=km Length=0.0168401 bus1=p17udt772lv.1.2 bus2=p17udm3076.1.2 switch=n enabled=y phases=2 Linecode=1P_OH_AL_2/0_Rucina_2

New Line.l(r:p17udt838lv-p17ulv3007) Units=km Length=0.0230387 bus1=p17udt838lv.1.2 bus2=p17ulv3007.1.2 switch=n enabled=y phases=2 Linecode=1P_UG_AL_1/0_Brenau_2

New Line.l(r:p17udt838lv-p17ulv3069) Units=km Length=0.0207764 bus1=p17udt838lv.1.2 bus2=p17ulv3069.1.2 switch=n enabled=y phases=2 Linecode=1P_UG_AL_1/0_Brenau_2

New Line.l(r:p17udt838lv-p17ulv3119) Units=km Length=0.0177278 bus1=p17udt838lv.1.2 bus2=p17ulv3119.1.2 switch=n enabled=y phases=2 Linecode=1P_UG_AL_1/0_Brenau_2

New Line.l(r:p17udt838lv-p17ulv3176) Units=km Length=0.0224906 bus1=p17udt838lv.1.2 bus2=p17ulv3176.1.2 switch=n enabled=y phases=2 Linecode=1P_UG_AL_1/0_Brenau_2

New Line.l(r:p17udm3448-p17ulv3303) Units=km Length=0.0158276 bus1=p17udm3448.1.2 bus2=p17ulv3303.1.2 switch=n enabled=y phases=2 Linecode=1P_UG_AL_1/0_Brenau_2

New Line.l(r:p17udm3448-p17udt838lv) Units=km Length=0.0166083 bus1=p17udt838lv.1.2 bus2=p17udm3448.1.2 switch=n enabled=y phases=2 Linecode=1P_UG_AL_1/0_Brenau_2

New Line.l(r:p17udt890lv-p17ulv3092) Units=km Length=0.014038 bus1=p17udt890lv.1.2 bus2=p17ulv3092.1.2 switch=n enabled=y phases=2 Linecode=1P_UG_AL_1/0_Brenau_2

New Line.l(r:p17udt890lv-p17ulv3317) Units=km Length=0.0495092 bus1=p17udt890lv.1.2 bus2=p17ulv3317.1.2 switch=n enabled=y phases=2 Linecode=1P_UG_AL_1/0_Brenau_2

New Line.l(r:p17udm3720-p17ulv3306) Units=km Length=0.0129817 bus1=p17udm3720.1.2 bus2=p17ulv3306.1.2 switch=n enabled=y phases=2 Linecode=1P_UG_AL_1/0_Brenau_2

New Line.l(r:p17udm3720-p17udt890lv) Units=km Length=0.011325400000000001 bus1=p17udt890lv.1.2 bus2=p17udm3720.1.2 switch=n enabled=y phases=2 Linecode=1P_UG_AL_1/0_Brenau_2

New Line.l(r:p17udt1202lv-p17ulv4623) Units=km Length=0.0105992 bus1=p17udt1202lv.1.2 bus2=p17ulv4623.1.2 switch=n enabled=y phases=2 Linecode=1P_OH_AL_2/0_Rucina_2

New Line.l(r:p17udm5110-p17ulv4725) Units=km Length=0.0163749 bus1=p17udm5110.1.2 bus2=p17ulv4725.1.2 switch=n enabled=y phases=2 Linecode=1P_OH_AL_2/0_Rucina_2

New Line.l(r:p17udm5110-p17ulv4740) Units=km Length=0.0134383 bus1=p17udm5110.1.2 bus2=p17ulv4740.1.2 switch=n enabled=y phases=2 Linecode=1P_OH_AL_2/0_Rucina_2_2

New Line.l(r:p17udm5110-p17ulv24957) Units=km Length=0.0148206 bus1=p17udm5110.1.2 bus2=p17ulv24957.1.2 switch=n enabled=y phases=2 Linecode=1P_OH_AL_2/0_Rucina_2

New Line.l(r:p17udm5110-p17udt1202lv) Units=km Length=0.0190803 bus1=p17udt1202lv.1.2 bus2=p17udm5110.1.2 switch=n enabled=y phases=2 Linecode=1P_OH_AL_2/0_Rucina_2_6

New Line.l(r:p17udm5113-p17ulv25049) Units=km Length=0.0209367 bus1=p17udm5113.1.2 bus2=p17ulv25049.1.2 switch=n enabled=y phases=2 Linecode=1P_OH_AL_2/0_Rucina_2

New Line.l(r:p17udm5113-p17udt1202lv) Units=km Length=0.0190803 bus1=p17udt1202lv.1.2 bus2=p17udm5113.1.2 switch=n enabled=y phases=2 Linecode=1P_OH_AL_2/0_Rucina_2

New Line.l(r:p17udt1209lv-p17ulv4636) Units=km Length=0.024488300000000005 bus1=p17udt1209lv.1.2 bus2=p17ulv4636.1.2 switch=n enabled=y phases=2 Linecode=1P_OH_AL_2/0_Rucina_2

New Line.l(r:p17udt1209lv-p17ulv4647) Units=km Length=0.0252202 bus1=p17udt1209lv.1.2 bus2=p17ulv4647.1.2 switch=n enabled=y phases=2 Linecode=1P_OH_AL_2/0_Rucina_2

New Line.l(r:p17udm5147-p17ulv4768) Units=km Length=0.0136907 bus1=p17udm5147.1.2 bus2=p17ulv4768.1.2 switch=n enabled=y phases=2 Linecode=1P_OH_AL_2/0_Rucina_2

New Line.l(r:p17udm5147-p17ulv4930) Units=km Length=0.0329754 bus1=p17udm5147.1.2 bus2=p17ulv4930.1.2 switch=n enabled=y phases=2 Linecode=1P_OH_AL_4/0_Zuzara_2

New Line.l(r:p17udm5147-p17udt1209lv) Units=km Length=0.0191938 bus1=p17udt1209lv.1.2 bus2=p17udm5147.1.2 switch=n enabled=y phases=2 Linecode=1P_OH_AL_2/0_Rucina_2

New Line.l(r:p17udt1231lv-p17ulv4679) Units=km Length=0.0180025 bus1=p17udt1231lv.1.2 bus2=p17ulv4679.1.2 switch=n enabled=y phases=2 Linecode=1P_OH_AL_2/0_Rucina_2

New Line.l(r:p17udm5226-p17ulv4775) Units=km Length=0.0160818 bus1=p17udm5226.1.2 bus2=p17ulv4775.1.2 switch=n enabled=y phases=2 Linecode=1P_OH_AL_2/0_Rucina_2

New Line.l(r:p17udm5226-p17udt1231lv) Units=km Length=0.00957347 bus1=p17udt1231lv.1.2 bus2=p17udm5226.1.2 switch=n enabled=y phases=2 Linecode=1P_OH_AL_2/0_Rucina_2

New Line.l(r:p17udm5238-p17ulv4686) Units=km Length=0.0162135 bus1=p17udm5238.1.2 bus2=p17ulv4686.1.2 switch=n enabled=y phases=2 Linecode=1P_OH_AL_2/0_Rucina_2

New Line.l(r:p17udm5238-p17udt1237lv) Units=km Length=0.0191938 bus1=p17udt1237lv.1.2 bus2=p17udm5238.1.2 switch=n enabled=y phases=2 Linecode=1P_OH_AL_2/0_Rucina_2

New Line.l(r:p17udm5239-p17ulv4924) Units=km Length=0.0136937 bus1=p17udm5239.1.2 bus2=p17ulv4924.1.2 switch=n enabled=y phases=2 Linecode=1P_OH_AL_2/0_Rucina_2

New Line.l(r:p17udm5239-p17udt1237lv) Units=km Length=0.058324 bus1=p17udt1237lv.1.2 bus2=p17udm5239.1.2 switch=n enabled=y phases=2 Linecode=1P_OH_AL_4/0_Zuzara_2

New Line.l(r:p17udt1240lv-p17ulv4692) Units=km Length=0.0177638 bus1=p17udt1240lv.1.2 bus2=p17ulv4692.1.2 switch=n enabled=y phases=2 Linecode=1P_OH_AL_2/0_Rucina_2

New Line.l(r:p17udt1240lv-p17ulv4862) Units=km Length=0.0130524 bus1=p17udt1240lv.1.2 bus2=p17ulv4862.1.2 switch=n enabled=y phases=2 Linecode=1P_OH_AL_2/0_Rucina_2

New Line.l(r:p17udm5252-p17ulv4717) Units=km Length=0.0198554 bus1=p17udm5252.1.2 bus2=p17ulv4717.1.2 switch=n enabled=y phases=2 Linecode=1P_OH_AL_2/0_Rucina_2_2

New Line.l(r:p17udm5252-p17ulv4780) Units=km Length=0.0188585 bus1=p17udm5252.1.2 bus2=p17ulv4780.1.2 switch=n enabled=y phases=2 Linecode=1P_OH_AL_2/0_Rucina_2

New Line.l(r:p17udm5252-p17udt1240lv) Units=km Length=0.019050500000000005 bus1=p17udt1240lv.1.2 bus2=p17udm5252.1.2 switch=n enabled=y phases=2 Linecode=1P_OH_AL_2/0_Rucina_2_3

New Line.l(r:p17udm5254-p17ulv4809) Units=km Length=0.0141607 bus1=p17udm5254.1.2 bus2=p17ulv4809.1.2 switch=n enabled=y phases=2 Linecode=1P_OH_AL_2/0_Rucina_2

New Line.l(r:p17udm5254-p17udt1240lv) Units=km Length=0.019050500000000005 bus1=p17udt1240lv.1.2 bus2=p17udm5254.1.2 switch=n enabled=y phases=2 Linecode=1P_OH_AL_2/0_Rucina_2

New Line.l(r:p17udt1249lv-p17ulv4766) Units=km Length=0.0104596 bus1=p17udt1249lv.1.2 bus2=p17ulv4766.1.2 switch=n enabled=y phases=2 Linecode=1P_OH_AL_2/0_Rucina_2

New Line.l(r:p17udt1249lv-p17ulv4782) Units=km Length=0.0160518 bus1=p17udt1249lv.1.2 bus2=p17ulv4782.1.2 switch=n enabled=y phases=2 Linecode=1P_OH_AL_2/0_Rucina_2
