New Load.load_p17ulv2076_1 conn=wye bus1=p17ulv2076.1 kV=0.12 Vminpu=0.8 Vmaxpu=1.2 model=1 kW=6.723781779101187 kvar=2.360611301631528 Phases=1 yearly=res_kw_14549_pu

New Load.load_p17ulv2076_2 conn=wye bus1=p17ulv2076.2 kV=0.12 Vminpu=0.8 Vmaxpu=1.2 model=1 kW=6.723781779101187 kvar=2.360611301631528 Phases=1 yearly=res_kw_14549_pu

New Load.load_p17ulv2081_1 conn=wye bus1=p17ulv2081.1 kV=0.12 Vminpu=0.8 Vmaxpu=1.2 model=1 kW=6.194489824277317 kvar=1.5288366499049897 Phases=1 yearly=res_kw_5656_pu

New Load.load_p17ulv2081_2 conn=wye bus1=p17ulv2081.2 kV=0.12 Vminpu=0.8 Vmaxpu=1.2 model=1 kW=6.194489824277317 kvar=1.5288366499049897 Phases=1 yearly=res_kw_5656_pu

New Load.load_p17ulv2090_1 conn=wye bus1=p17ulv2090.1 kV=0.12 Vminpu=0.8 Vmaxpu=1.2 model=1 kW=4.503447426085568 kvar=1.5728184987377443 Phases=1 yearly=res_kw_4108_pu

New Load.load_p17ulv2090_2 conn=wye bus1=p17ulv2090.2 kV=0.12 Vminpu=0.8 Vmaxpu=1.2 model=1 kW=4.503447426085568 kvar=1.5728184987377443 Phases=1 yearly=res_kw_4108_pu

New Load.load_p17ulv2116_1 conn=wye bus1=p17ulv2116.1 kV=0.12 Vminpu=0.8 Vmaxpu=1.2 model=1 kW=4.809311048821146 kvar=1.197340435378711 Phases=1 yearly=res_kw_3369_pu

New Load.load_p17ulv2116_2 conn=wye bus1=p17ulv2116.2 kV=0.12 Vminpu=0.8 Vmaxpu=1.2 model=1 kW=4.809311048821146 kvar=1.197340435378711 Phases=1 yearly=res_kw_3369_pu

New Load.load_p17ulv2130_1 conn=wye bus1=p17ulv2130.1 kV=0.12 Vminpu=0.8 Vmaxpu=1.2 model=1 kW=2.650441790139223 kvar=0.8941190966045123 Phases=1 yearly=res_kw_822_pu

New Load.load_p17ulv2130_2 conn=wye bus1=p17ulv2130.2 kV=0.12 Vminpu=0.8 Vmaxpu=1.2 model=1 kW=2.650441790139223 kvar=0.8941190966045123 Phases=1 yearly=res_kw_822_pu

New Load.load_p17ulv2133_1 conn=wye bus1=p17ulv2133.1 kV=0.12 Vminpu=0.8 Vmaxpu=1.2 model=1 kW=4.43100942068196 kvar=1.0076753372984877 Phases=1 yearly=res_kw_7851_pu

New Load.load_p17ulv2133_2 conn=wye bus1=p17ulv2133.2 kV=0.12 Vminpu=0.8 Vmaxpu=1.2 model=1 kW=4.43100942068196 kvar=1.0076753372984877 Phases=1 yearly=res_kw_7851_pu

New Load.load_p17ulv2147_1 conn=wye bus1=p17ulv2147.1 kV=0.12 Vminpu=0.8 Vmaxpu=1.2 model=1 kW=1.9973305190588508 kvar=0.9526950745490338 Phases=1 yearly=res_kw_13671_pu

New Load.load_p17ulv2147_2 conn=wye bus1=p17ulv2147.2 kV=0.12 Vminpu=0.8 Vmaxpu=1.2 model=1 kW=1.9973305190588508 kvar=0.9526950745490338 Phases=1 yearly=res_kw_13671_pu

New Load.load_p17ulv2150_1 conn=wye bus1=p17ulv2150.1 kV=0.12 Vminpu=0.8 Vmaxpu=1.2 model=1 kW=5.163370190155456 kvar=0.9999526990323999 Phases=1 yearly=res_kw_12803_pu

New Load.load_p17ulv2150_2 conn=wye bus1=p17ulv2150.2 kV=0.12 Vminpu=0.8 Vmaxpu=1.2 model=1 kW=5.163370190155456 kvar=0.9999526990323999 Phases=1 yearly=res_kw_12803_pu

New Load.load_p17ulv2152_1 conn=wye bus1=p17ulv2152.1 kV=0.12 Vminpu=0.8 Vmaxpu=1.2 model=1 kW=14.513424092217596 kvar=2.3726586674003918 Phases=1 yearly=res_kw_6087_pu

New Load.load_p17ulv2152_2 conn=wye bus1=p17ulv2152.2 kV=0.12 Vminpu=0.8 Vmaxpu=1.2 model=1 kW=14.513424092217596 kvar=2.3726586674003918 Phases=1 yearly=res_kw_6087_pu

New Load.load_p17ulv2156_1 conn=wye bus1=p17ulv2156.1 kV=0.12 Vminpu=0.8 Vmaxpu=1.2 model=1 kW=5.164304385758769 kvar=1.2632805487515468 Phases=1 yearly=res_kw_2494_pu

New Load.load_p17ulv2156_2 conn=wye bus1=p17ulv2156.2 kV=0.12 Vminpu=0.8 Vmaxpu=1.2 model=1 kW=5.164304385758769 kvar=1.2632805487515468 Phases=1 yearly=res_kw_2494_pu

New Load.load_p17ulv2160_1 conn=wye bus1=p17ulv2160.1 kV=0.12 Vminpu=0.8 Vmaxpu=1.2 model=1 kW=3.283752349161772 kvar=1.1583018658461228 Phases=1 yearly=res_kw_4012_pu

New Load.load_p17ulv2160_2 conn=wye bus1=p17ulv2160.2 kV=0.12 Vminpu=0.8 Vmaxpu=1.2 model=1 kW=3.283752349161772 kvar=1.1583018658461228 Phases=1 yearly=res_kw_4012_pu

New Load.load_p17ulv2179_1 conn=wye bus1=p17ulv2179.1 kV=0.12 Vminpu=0.8 Vmaxpu=1.2 model=1 kW=4.666791013286256 kvar=1.1771872459147903 Phases=1 yearly=res_kw_13338_pu

New Load.load_p17ulv2179_2 conn=wye bus1=p17ulv2179.2 kV=0.12 Vminpu=0.8 Vmaxpu=1.2 model=1 kW=4.666791013286256 kvar=1.1771872459147903 Phases=1 yearly=res_kw_13338_pu

New Load.load_p17ulv2184_1 conn=wye bus1=p17ulv2184.1 kV=0.12 Vminpu=0.8 Vmaxpu=1.2 model=1 kW=5.961931681908369 kvar=1.679314970659087 Phases=1 yearly=res_kw_7029_pu

New Load.load_p17ulv2184_2 conn=wye bus1=p17ulv2184.2 kV=0.12 Vminpu=0.8 Vmaxpu=1.2 model=1 kW=5.961931681908369 kvar=1.679314970659087 Phases=1 yearly=res_kw_7029_pu

New Load.load_p17ulv2185_1 conn=wye bus1=p17ulv2185.1 kV=0.12 Vminpu=0.8 Vmaxpu=1.2 model=1 kW=5.828469853780653 kvar=0.21450007869014182 Phases=1 yearly=res_kw_8883_pu

New Load.load_p17ulv2185_2 conn=wye bus1=p17ulv2185.2 kV=0.12 Vminpu=0.8 Vmaxpu=1.2 model=1 kW=5.828469853780653 kvar=0.21450007869014182 Phases=1 yearly=res_kw_8883_pu

New Load.load_p17ulv2196_1 conn=wye bus1=p17ulv2196.1 kV=0.12 Vminpu=0.8 Vmaxpu=1.2 model=1 kW=2.314954210015221 kvar=1.106584285278311 Phases=1 yearly=res_kw_48_pu

New Load.load_p17ulv2196_2 conn=wye bus1=p17ulv2196.2 kV=0.12 Vminpu=0.8 Vmaxpu=1.2 model=1 kW=2.314954210015221 kvar=1.106584285278311 Phases=1 yearly=res_kw_48_pu

New Load.load_p17ulv2197_1 conn=wye bus1=p17ulv2197.1 kV=0.12 Vminpu=0.8 Vmaxpu=1.2 model=1 kW=3.283752349161772 kvar=1.1583018658461228 Phases=1 yearly=res_kw_4012_pu

New Load.load_p17ulv2197_2 conn=wye bus1=p17ulv2197.2 kV=0.12 Vminpu=0.8 Vmaxpu=1.2 model=1 kW=3.283752349161772 kvar=1.1583018658461228 Phases=1 yearly=res_kw_4012_pu

New Load.load_p17ulv2201_1 conn=wye bus1=p17ulv2201.1 kV=0.12 Vminpu=0.8 Vmaxpu=1.2 model=1 kW=4.3570107644763665 kvar=1.0196850760740372 Phases=1 yearly=res_kw_7457_pu

New Load.load_p17ulv2201_2 conn=wye bus1=p17ulv2201.2 kV=0.12 Vminpu=0.8 Vmaxpu=1.2 model=1 kW=4.3570107644763665 kvar=1.0196850760740372 Phases=1 yearly=res_kw_7457_pu

New Load.load_p17ulv2211_1 conn=wye bus1=p17ulv2211.1 kV=0.12 Vminpu=0.8 Vmaxpu=1.2 model=1 kW=4.495896260878145 kvar=1.8131838430790903 Phases=1 yearly=res_kw_7389_pu

New Load.load_p17ulv2211_2 conn=wye bus1=p17ulv2211.2 kV=0.12 Vminpu=0.8 Vmaxpu=1.2 model=1 kW=4.495896260878145 kvar=1.8131838430790903 Phases=1 yearly=res_kw_7389_pu

New Load.load_p17ulv2212_1 conn=wye bus1=p17ulv2212.1 kV=0.12 Vminpu=0.8 Vmaxpu=1.2 model=1 kW=1.973294008113488 kvar=0.1951315698321081 Phases=1 yearly=res_kw_13866_pu

New Load.load_p17ulv2212_2 conn=wye bus1=p17ulv2212.2 kV=0.12 Vminpu=0.8 Vmaxpu=1.2 model=1 kW=1.973294008113488 kvar=0.1951315698321081 Phases=1 yearly=res_kw_13866_pu

New Load.load_p17ulv2223_1 conn=wye bus1=p17ulv2223.1 kV=0.12 Vminpu=0.8 Vmaxpu=1.2 model=1 kW=1.9081602199249383 kvar=0.8501728482203155 Phases=1 yearly=res_kw_12943_pu

New Load.load_p17ulv2223_2 conn=wye bus1=p17ulv2223.2 kV=0.12 Vminpu=0.8 Vmaxpu=1.2 model=1 kW=1.9081602199249383 kvar=0.8501728482203155 Phases=1 yearly=res_kw_12943_pu

New Load.load_p17ulv2240_1 conn=wye bus1=p17ulv2240.1 kV=0.12 Vminpu=0.8 Vmaxpu=1.2 model=1 kW=5.828469853780653 kvar=0.21450007869014182 Phases=1 yearly=res_kw_8883_pu

New Load.load_p17ulv2240_2 conn=wye bus1=p17ulv2240.2 kV=0.12 Vminpu=0.8 Vmaxpu=1.2 model=1 kW=5.828469853780653 kvar=0.21450007869014182 Phases=1 yearly=res_kw_8883_pu

New Load.load_p17ulv2243_1 conn=wye bus1=p17ulv2243.1 kV=0.12 Vminpu=0.8 Vmaxpu=1.2 model=1 kW=4.503447426085568 kvar=1.5728184987377443 Phases=1 yearly=res_kw_4108_pu

New Load.load_p17ulv2243_2 conn=wye bus1=p17ulv2243.2 kV=0.12 Vminpu=0.8 Vmaxpu=1.2 model=1 kW=4.503447426085568 kvar=1.5728184987377443 Phases=1 yearly=res_kw_4108_pu

New Load.load_p17ulv2260_1 conn=wye bus1=p17ulv2260.1 kV=0.12 Vminpu=0.8 Vmaxpu=1.2 model=1 kW=2.050704237020096 kvar=0.9271843556587984 Phases=1 yearly=res_kw_1201_pu

New Load.load_p17ulv2260_2 conn=wye bus1=p17ulv2260.2 kV=0.12 Vminpu=0.8 Vmaxpu=1.2 model=1 kW=2.050704237020096 kvar=0.9271843556587984 Phases=1 yearly=res_kw_1201_pu

New Load.load_p17ulv2272_1 conn=wye bus1=p17ulv2272.1 kV=0.12 Vminpu=0.8 Vmaxpu=1.2 model=1 kW=1.911613296452328 kvar=1.0743306152207384 Phases=1 yearly=res_kw_6196_pu

New Load.load_p17ulv2272_2 conn=wye bus1=p17ulv2272.2 kV=0.12 Vminpu=0.8 Vmaxpu=1.2 model=1 kW=1.911613296452328 kvar=1.0743306152207384 Phases=1 yearly=res_kw_6196_pu

New Load.load_p17ulv2285_1 conn=wye bus1=p17ulv2285.1 kV=0.12 Vminpu=0.8 Vmaxpu=1.2 model=1 kW=2.3810058275782695 kvar=1.0648129378047442 Phases=1 yearly=res_kw_13700_pu

New Load.load_p17ulv2285_2 conn=wye bus1=p17ulv2285.2 kV=0.12 Vminpu=0.8 Vmaxpu=1.2 model=1 kW=2.3810058275782695 kvar=1.0648129378047442 Phases=1 yearly=res_kw_13700_pu

New Load.load_p17ulv2288_1 conn=wye bus1=p17ulv2288.1 kV=0.12 Vminpu=0.8 Vmaxpu=1.2 model=1 kW=5.035864291722066 kvar=1.3172123128710984 Phases=1 yearly=res_kw_960_pu

New Load.load_p17ulv2288_2 conn=wye bus1=p17ulv2288.2 kV=0.12 Vminpu=0.8 Vmaxpu=1.2 model=1 kW=5.035864291722066 kvar=1.3172123128710984 Phases=1 yearly=res_kw_960_pu

New Load.load_p17ulv2301_1 conn=wye bus1=p17ulv2301.1 kV=0.12 Vminpu=0.8 Vmaxpu=1.2 model=1 kW=2.844413471280955 kvar=0.8752203737189916 Phases=1 yearly=res_kw_7596_pu

New Load.load_p17ulv2301_2 conn=wye bus1=p17ulv2301.2 kV=0.12 Vminpu=0.8 Vmaxpu=1.2 model=1 kW=2.844413471280955 kvar=0.8752203737189916 Phases=1 yearly=res_kw_7596_pu

New Load.load_p17ulv2342_1 conn=wye bus1=p17ulv2342.1 kV=0.12 Vminpu=0.8 Vmaxpu=1.2 model=1 kW=2.2332898223393483 kvar=0.8287577917098732 Phases=1 yearly=res_kw_2345_pu

New Load.load_p17ulv2342_2 conn=wye bus1=p17ulv2342.2 kV=0.12 Vminpu=0.8 Vmaxpu=1.2 model=1 kW=2.2332898223393483 kvar=0.8287577917098732 Phases=1 yearly=res_kw_2345_pu

New Load.load_p17ulv2364_1 conn=wye bus1=p17ulv2364.1 kV=0.12 Vminpu=0.8 Vmaxpu=1.2 model=1 kW=3.4605217724966244 kvar=1.0924708586317713 Phases=1 yearly=res_kw_5183_pu

New Load.load_p17ulv2364_2 conn=wye bus1=p17ulv2364.2 kV=0.12 Vminpu=0.8 Vmaxpu=1.2 model=1 kW=3.4605217724966244 kvar=1.0924708586317713 Phases=1 yearly=res_kw_5183_pu

New Load.load_p17ulv2372_1 conn=wye bus1=p17ulv2372.1 kV=0.12 Vminpu=0.8 Vmaxpu=1.2 model=1 kW=5.164304385758769 kvar=1.2632805487515468 Phases=1 yearly=res_kw_2494_pu

New Load.load_p17ulv2372_2 conn=wye bus1=p17ulv2372.2 kV=0.12 Vminpu=0.8 Vmaxpu=1.2 model=1 kW=5.164304385758769 kvar=1.2632805487515468 Phases=1 yearly=res_kw_2494_pu

New Load.load_p17ulv2384_1 conn=wye bus1=p17ulv2384.1 kV=0.12 Vminpu=0.8 Vmaxpu=1.2 model=1 kW=2.5776731389087666 kvar=1.3836809184870125 Phases=1 yearly=res_kw_3630_pu

New Load.load_p17ulv2384_2 conn=wye bus1=p17ulv2384.2 kV=0.12 Vminpu=0.8 Vmaxpu=1.2 model=1 kW=2.5776731389087666 kvar=1.3836809184870125 Phases=1 yearly=res_kw_3630_pu

New Load.load_p17ulv2390_1 conn=wye bus1=p17ulv2390.1 kV=0.12 Vminpu=0.8 Vmaxpu=1.2 model=1 kW=6.966288704933137 kvar=0.09171044022559441 Phases=1 yearly=res_kw_2514_pu

New Load.load_p17ulv2390_2 conn=wye bus1=p17ulv2390.2 kV=0.12 Vminpu=0.8 Vmaxpu=1.2 model=1 kW=6.966288704933137 kvar=0.09171044022559441 Phases=1 yearly=res_kw_2514_pu

New Load.load_p17ulv2403_1 conn=wye bus1=p17ulv2403.1 kV=0.12 Vminpu=0.8 Vmaxpu=1.2 model=1 kW=3.9622109335801423 kvar=0.7075578226199918 Phases=1 yearly=res_kw_4694_pu

New Load.load_p17ulv2403_2 conn=wye bus1=p17ulv2403.2 kV=0.12 Vminpu=0.8 Vmaxpu=1.2 model=1 kW=3.9622109335801423 kvar=0.7075578226199918 Phases=1 yearly=res_kw_4694_pu

New Load.load_p17ulv2412_1 conn=wye bus1=p17ulv2412.1 kV=0.12 Vminpu=0.8 Vmaxpu=1.2 model=1 kW=2.4984686592236875 kvar=1.0017960118978075 Phases=1 yearly=res_kw_6262_pu

New Load.load_p17ulv2412_2 conn=wye bus1=p17ulv2412.2 kV=0.12 Vminpu=0.8 Vmaxpu=1.2 model=1 kW=2.4984686592236875 kvar=1.0017960118978075 Phases=1 yearly=res_kw_6262_pu

New Load.load_p17ulv2415_1 conn=wye bus1=p17ulv2415.1 kV=0.12 Vminpu=0.8 Vmaxpu=1.2 model=1 kW=3.9890922542620206 kvar=0.716354988208188 Phases=1 yearly=res_kw_4734_pu

New Load.load_p17ulv2415_2 conn=wye bus1=p17ulv2415.2 kV=0.12 Vminpu=0.8 Vmaxpu=1.2 model=1 kW=3.9890922542620206 kvar=0.716354988208188 Phases=1 yearly=res_kw_4734_pu

New Load.load_p17ulv2416_1 conn=wye bus1=p17ulv2416.1 kV=0.12 Vminpu=0.8 Vmaxpu=1.2 model=1 kW=6.5946662778921326 kvar=1.732607836054666 Phases=1 yearly=res_kw_15001_pu

New Load.load_p17ulv2416_2 conn=wye bus1=p17ulv2416.2 kV=0.12 Vminpu=0.8 Vmaxpu=1.2 model=1 kW=6.5946662778921326 kvar=1.732607836054666 Phases=1 yearly=res_kw_15001_pu

New Load.load_p17ulv2419_1 conn=wye bus1=p17ulv2419.1 kV=0.12 Vminpu=0.8 Vmaxpu=1.2 model=1 kW=4.5380303968664055 kvar=0.9783141552161502 Phases=1 yearly=res_kw_5417_pu

New Load.load_p17ulv2419_2 conn=wye bus1=p17ulv2419.2 kV=0.12 Vminpu=0.8 Vmaxpu=1.2 model=1 kW=4.5380303968664055 kvar=0.9783141552161502 Phases=1 yearly=res_kw_5417_pu

New Load.load_p17ulv2423_1 conn=wye bus1=p17ulv2423.1 kV=0.12 Vminpu=0.8 Vmaxpu=1.2 model=1 kW=2.4082436890639105 kvar=1.156811070500272 Phases=1 yearly=res_kw_14615_pu

New Load.load_p17ulv2423_2 conn=wye bus1=p17ulv2423.2 kV=0.12 Vminpu=0.8 Vmaxpu=1.2 model=1 kW=2.4082436890639105 kvar=1.156811070500272 Phases=1 yearly=res_kw_14615_pu

New Load.load_p17ulv2426_1 conn=wye bus1=p17ulv2426.1 kV=0.12 Vminpu=0.8 Vmaxpu=1.2 model=1 kW=5.14620882570856 kvar=1.961440340260409 Phases=1 yearly=res_kw_1989_pu

New Load.load_p17ulv2426_2 conn=wye bus1=p17ulv2426.2 kV=0.12 Vminpu=0.8 Vmaxpu=1.2 model=1 kW=5.14620882570856 kvar=1.961440340260409 Phases=1 yearly=res_kw_1989_pu

New Load.load_p17ulv2434_1 conn=wye bus1=p17ulv2434.1 kV=0.12 Vminpu=0.8 Vmaxpu=1.2 model=1 kW=5.489102142350381 kvar=1.5270511103120832 Phases=1 yearly=res_kw_5231_pu

New Load.load_p17ulv2434_2 conn=wye bus1=p17ulv2434.2 kV=0.12 Vminpu=0.8 Vmaxpu=1.2 model=1 kW=5.489102142350381 kvar=1.5270511103120832 Phases=1 yearly=res_kw_5231_pu

New Load.load_p17ulv2438_1 conn=wye bus1=p17ulv2438.1 kV=0.12 Vminpu=0.8 Vmaxpu=1.2 model=1 kW=2.0240502132333855 kvar=0.5295456567023789 Phases=1 yearly=res_kw_10487_pu

New Load.load_p17ulv2438_2 conn=wye bus1=p17ulv2438.2 kV=0.12 Vminpu=0.8 Vmaxpu=1.2 model=1 kW=2.0240502132333855 kvar=0.5295456567023789 Phases=1 yearly=res_kw_10487_pu

New Load.load_p17ulv2442_1 conn=wye bus1=p17ulv2442.1 kV=0.12 Vminpu=0.8 Vmaxpu=1.2 model=1 kW=4.38008634023516 kvar=0.2705300573238842 Phases=1 yearly=res_kw_4586_pu

New Load.load_p17ulv2442_2 conn=wye bus1=p17ulv2442.2 kV=0.12 Vminpu=0.8 Vmaxpu=1.2 model=1 kW=4.38008634023516 kvar=0.2705300573238842 Phases=1 yearly=res_kw_4586_pu

New Load.load_p17ulv2448_1 conn=wye bus1=p17ulv2448.1 kV=0.12 Vminpu=0.8 Vmaxpu=1.2 model=1 kW=4.495896260878145 kvar=1.8131838430790903 Phases=1 yearly=res_kw_7389_pu

New Load.load_p17ulv2448_2 conn=wye bus1=p17ulv2448.2 kV=0.12 Vminpu=0.8 Vmaxpu=1.2 model=1 kW=4.495896260878145 kvar=1.8131838430790903 Phases=1 yearly=res_kw_7389_pu

New Load.load_p17ulv2463_1 conn=wye bus1=p17ulv2463.1 kV=0.12 Vminpu=0.8 Vmaxpu=1.2 model=1 kW=1.6540284771036238 kvar=0.604826436726383 Phases=1 yearly=res_kw_3977_pu

New Load.load_p17ulv2463_2 conn=wye bus1=p17ulv2463.2 kV=0.12 Vminpu=0.8 Vmaxpu=1.2 model=1 kW=1.6540284771036238 kvar=0.604826436726383 Phases=1 yearly=res_kw_3977_pu

New Load.load_p17ulv2464_1 conn=wye bus1=p17ulv2464.1 kV=0.12 Vminpu=0.8 Vmaxpu=1.2 model=1 kW=5.961931681908369 kvar=1.679314970659087 Phases=1 yearly=res_kw_7029_pu

New Load.load_p17ulv2464_2 conn=wye bus1=p17ulv2464.2 kV=0.12 Vminpu=0.8 Vmaxpu=1.2 model=1 kW=5.961931681908369 kvar=1.679314970659087 Phases=1 yearly=res_kw_7029_pu

New Load.load_p17ulv2470_1 conn=wye bus1=p17ulv2470.1 kV=0.12 Vminpu=0.8 Vmaxpu=1.2 model=1 kW=5.426387689989847 kvar=0.13172673282708838 Phases=1 yearly=res_kw_13258_pu

New Load.load_p17ulv2470_2 conn=wye bus1=p17ulv2470.2 kV=0.12 Vminpu=0.8 Vmaxpu=1.2 model=1 kW=5.426387689989847 kvar=0.13172673282708838 Phases=1 yearly=res_kw_13258_pu

New Load.load_p17ulv2472_1 conn=wye bus1=p17ulv2472.1 kV=0.12 Vminpu=0.8 Vmaxpu=1.2 model=1 kW=6.029340317181467 kvar=0.8428650524659024 Phases=1 yearly=res_kw_7631_pu

New Load.load_p17ulv2472_2 conn=wye bus1=p17ulv2472.2 kV=0.12 Vminpu=0.8 Vmaxpu=1.2 model=1 kW=6.029340317181467 kvar=0.8428650524659024 Phases=1 yearly=res_kw_7631_pu

New Load.load_p17ulv2477_1 conn=wye bus1=p17ulv2477.1 kV=0.12 Vminpu=0.8 Vmaxpu=1.2 model=1 kW=4.38008634023516 kvar=0.2705300573238842 Phases=1 yearly=res_kw_4586_pu

New Load.load_p17ulv2477_2 conn=wye bus1=p17ulv2477.2 kV=0.12 Vminpu=0.8 Vmaxpu=1.2 model=1 kW=4.38008634023516 kvar=0.2705300573238842 Phases=1 yearly=res_kw_4586_pu

New Load.load_p17ulv2480_1 conn=wye bus1=p17ulv2480.1 kV=0.12 Vminpu=0.8 Vmaxpu=1.2 model=1 kW=3.9890922542620206 kvar=0.716354988208188 Phases=1 yearly=res_kw_4734_pu

New Load.load_p17ulv2480_2 conn=wye bus1=p17ulv2480.2 kV=0.12 Vminpu=0.8 Vmaxpu=1.2 model=1 kW=3.9890922542620206 kvar=0.716354988208188 Phases=1 yearly=res_kw_4734_pu

New Load.load_p17ulv2487_1 conn=wye bus1=p17ulv2487.1 kV=0.12 Vminpu=0.8 Vmaxpu=1.2 model=1 kW=2.6224477749097725 kvar=0.939411358234502 Phases=1 yearly=res_kw_6975_pu

New Load.load_p17ulv2487_2 conn=wye bus1=p17ulv2487.2 kV=0.12 Vminpu=0.8 Vmaxpu=1.2 model=1 kW=2.6224477749097725 kvar=0.939411358234502 Phases=1 yearly=res_kw_6975_pu

New Load.load_p17ulv2503_1 conn=wye bus1=p17ulv2503.1 kV=0.12 Vminpu=0.8 Vmaxpu=1.2 model=1 kW=10.292862212766034 kvar=2.552945343025376 Phases=1 yearly=res_kw_8121_pu

New Load.load_p17ulv2503_2 conn=wye bus1=p17ulv2503.2 kV=0.12 Vminpu=0.8 Vmaxpu=1.2 model=1 kW=10.292862212766034 kvar=2.552945343025376 Phases=1 yearly=res_kw_8121_pu

New Load.load_p17ulv2504_1 conn=wye bus1=p17ulv2504.1 kV=0.12 Vminpu=0.8 Vmaxpu=1.2 model=1 kW=2.2332898223393483 kvar=0.8287577917098732 Phases=1 yearly=res_kw_2345_pu

New Load.load_p17ulv2504_2 conn=wye bus1=p17ulv2504.2 kV=0.12 Vminpu=0.8 Vmaxpu=1.2 model=1 kW=2.2332898223393483 kvar=0.8287577917098732 Phases=1 yearly=res_kw_2345_pu

New Load.load_p17ulv2510_1 conn=wye bus1=p17ulv2510.1 kV=0.12 Vminpu=0.8 Vmaxpu=1.2 model=1 kW=5.860157714731325 kvar=1.8294256325268106 Phases=1 yearly=res_kw_2365_pu

New Load.load_p17ulv2510_2 conn=wye bus1=p17ulv2510.2 kV=0.12 Vminpu=0.8 Vmaxpu=1.2 model=1 kW=5.860157714731325 kvar=1.8294256325268106 Phases=1 yearly=res_kw_2365_pu

New Load.load_p17ulv2514_1 conn=wye bus1=p17ulv2514.1 kV=0.12 Vminpu=0.8 Vmaxpu=1.2 model=1 kW=4.5380303968664055 kvar=0.9783141552161502 Phases=1 yearly=res_kw_5417_pu

New Load.load_p17ulv2514_2 conn=wye bus1=p17ulv2514.2 kV=0.12 Vminpu=0.8 Vmaxpu=1.2 model=1 kW=4.5380303968664055 kvar=0.9783141552161502 Phases=1 yearly=res_kw_5417_pu

New Load.load_p17ulv2518_1 conn=wye bus1=p17ulv2518.1 kV=0.12 Vminpu=0.8 Vmaxpu=1.2 model=1 kW=4.666791013286256 kvar=1.1771872459147903 Phases=1 yearly=res_kw_13338_pu

New Load.load_p17ulv2518_2 conn=wye bus1=p17ulv2518.2 kV=0.12 Vminpu=0.8 Vmaxpu=1.2 model=1 kW=4.666791013286256 kvar=1.1771872459147903 Phases=1 yearly=res_kw_13338_pu

New Load.load_p17ulv2528_1 conn=wye bus1=p17ulv2528.1 kV=0.12 Vminpu=0.8 Vmaxpu=1.2 model=1 kW=4.978924462157091 kvar=1.5029863072585232 Phases=1 yearly=res_kw_1389_pu

New Load.load_p17ulv2528_2 conn=wye bus1=p17ulv2528.2 kV=0.12 Vminpu=0.8 Vmaxpu=1.2 model=1 kW=4.978924462157091 kvar=1.5029863072585232 Phases=1 yearly=res_kw_1389_pu

New Load.load_p17ulv2533_1 conn=wye bus1=p17ulv2533.1 kV=0.12 Vminpu=0.8 Vmaxpu=1.2 model=1 kW=3.0960259278232902 kvar=1.03596653056113 Phases=1 yearly=res_kw_1949_pu

New Load.load_p17ulv2533_2 conn=wye bus1=p17ulv2533.2 kV=0.12 Vminpu=0.8 Vmaxpu=1.2 model=1 kW=3.0960259278232902 kvar=1.03596653056113 Phases=1 yearly=res_kw_1949_pu

New Load.load_p17ulv2544_1 conn=wye bus1=p17ulv2544.1 kV=0.12 Vminpu=0.8 Vmaxpu=1.2 model=1 kW=3.4605217724966244 kvar=1.0924708586317713 Phases=1 yearly=res_kw_5183_pu

New Load.load_p17ulv2544_2 conn=wye bus1=p17ulv2544.2 kV=0.12 Vminpu=0.8 Vmaxpu=1.2 model=1 kW=3.4605217724966244 kvar=1.0924708586317713 Phases=1 yearly=res_kw_5183_pu

New Load.load_p17ulv2547_1 conn=wye bus1=p17ulv2547.1 kV=0.12 Vminpu=0.8 Vmaxpu=1.2 model=1 kW=3.621015985942055 kvar=1.0998977154862992 Phases=1 yearly=res_kw_6240_pu

New Load.load_p17ulv2547_2 conn=wye bus1=p17ulv2547.2 kV=0.12 Vminpu=0.8 Vmaxpu=1.2 model=1 kW=3.621015985942055 kvar=1.0998977154862992 Phases=1 yearly=res_kw_6240_pu

New Load.load_p17ulv2550_1 conn=wye bus1=p17ulv2550.1 kV=0.12 Vminpu=0.8 Vmaxpu=1.2 model=1 kW=1.9616390511088273 kvar=1.0190076472670158 Phases=1 yearly=res_kw_9131_pu

New Load.load_p17ulv2550_2 conn=wye bus1=p17ulv2550.2 kV=0.12 Vminpu=0.8 Vmaxpu=1.2 model=1 kW=1.9616390511088273 kvar=1.0190076472670158 Phases=1 yearly=res_kw_9131_pu

New Load.load_p17ulv2553_1 conn=wye bus1=p17ulv2553.1 kV=0.12 Vminpu=0.8 Vmaxpu=1.2 model=1 kW=3.9074383092133864 kvar=0.08385670317934282 Phases=1 yearly=res_kw_6166_pu

New Load.load_p17ulv2553_2 conn=wye bus1=p17ulv2553.2 kV=0.12 Vminpu=0.8 Vmaxpu=1.2 model=1 kW=3.9074383092133864 kvar=0.08385670317934282 Phases=1 yearly=res_kw_6166_pu

New Load.load_p17ulv2558_1 conn=wye bus1=p17ulv2558.1 kV=0.12 Vminpu=0.8 Vmaxpu=1.2 model=1 kW=1.7857974186813999 kvar=0.8638700355671469 Phases=1 yearly=res_kw_11106_pu

New Load.load_p17ulv2558_2 conn=wye bus1=p17ulv2558.2 kV=0.12 Vminpu=0.8 Vmaxpu=1.2 model=1 kW=1.7857974186813999 kvar=0.8638700355671469 Phases=1 yearly=res_kw_11106_pu

New Load.load_p17ulv2563_1 conn=wye bus1=p17ulv2563.1 kV=0.12 Vminpu=0.8 Vmaxpu=1.2 model=1 kW=5.569731115100019 kvar=1.4854022909631843 Phases=1 yearly=res_kw_7472_pu

New Load.load_p17ulv2563_2 conn=wye bus1=p17ulv2563.2 kV=0.12 Vminpu=0.8 Vmaxpu=1.2 model=1 kW=5.569731115100019 kvar=1.4854022909631843 Phases=1 yearly=res_kw_7472_pu

New Load.load_p17ulv2565_1 conn=wye bus1=p17ulv2565.1 kV=0.12 Vminpu=0.8 Vmaxpu=1.2 model=1 kW=9.074805576277466 kvar=1.8421110117949568 Phases=1 yearly=res_kw_13363_pu

New Load.load_p17ulv2565_2 conn=wye bus1=p17ulv2565.2 kV=0.12 Vminpu=0.8 Vmaxpu=1.2 model=1 kW=9.074805576277466 kvar=1.8421110117949568 Phases=1 yearly=res_kw_13363_pu

New Load.load_p17ulv2567_1 conn=wye bus1=p17ulv2567.1 kV=0.12 Vminpu=0.8 Vmaxpu=1.2 model=1 kW=8.740041644269233 kvar=0.1041876898492159 Phases=1 yearly=res_kw_14411_pu

New Load.load_p17ulv2567_2 conn=wye bus1=p17ulv2567.2 kV=0.12 Vminpu=0.8 Vmaxpu=1.2 model=1 kW=8.740041644269233 kvar=0.1041876898492159 Phases=1 yearly=res_kw_14411_pu

New Load.load_p17ulv2579_1 conn=wye bus1=p17ulv2579.1 kV=0.12 Vminpu=0.8 Vmaxpu=1.2 model=1 kW=4.2604906961648235 kvar=0.15478532422089625 Phases=1 yearly=res_kw_8466_pu

New Load.load_p17ulv2579_2 conn=wye bus1=p17ulv2579.2 kV=0.12 Vminpu=0.8 Vmaxpu=1.2 model=1 kW=4.2604906961648235 kvar=0.15478532422089625 Phases=1 yearly=res_kw_8466_pu

New Load.load_p17ulv2601_1 conn=wye bus1=p17ulv2601.1 kV=0.12 Vminpu=0.8 Vmaxpu=1.2 model=1 kW=2.314954210015221 kvar=1.106584285278311 Phases=1 yearly=res_kw_48_pu

New Load.load_p17ulv2601_2 conn=wye bus1=p17ulv2601.2 kV=0.12 Vminpu=0.8 Vmaxpu=1.2 model=1 kW=2.314954210015221 kvar=1.106584285278311 Phases=1 yearly=res_kw_48_pu

New Load.load_p17ulv2604_1 conn=wye bus1=p17ulv2604.1 kV=0.12 Vminpu=0.8 Vmaxpu=1.2 model=1 kW=1.7726519849372289 kvar=0.8496257146651567 Phases=1 yearly=res_kw_200_pu

New Load.load_p17ulv2604_2 conn=wye bus1=p17ulv2604.2 kV=0.12 Vminpu=0.8 Vmaxpu=1.2 model=1 kW=1.7726519849372289 kvar=0.8496257146651567 Phases=1 yearly=res_kw_200_pu

New Load.load_p17ulv2609_1 conn=wye bus1=p17ulv2609.1 kV=0.12 Vminpu=0.8 Vmaxpu=1.2 model=1 kW=2.314954210015221 kvar=1.106584285278311 Phases=1 yearly=res_kw_48_pu

New Load.load_p17ulv2609_2 conn=wye bus1=p17ulv2609.2 kV=0.12 Vminpu=0.8 Vmaxpu=1.2 model=1 kW=2.314954210015221 kvar=1.106584285278311 Phases=1 yearly=res_kw_48_pu

New Load.load_p17ulv2619_1 conn=wye bus1=p17ulv2619.1 kV=0.12 Vminpu=0.8 Vmaxpu=1.2 model=1 kW=4.480926648879515 kvar=0.30389827867828717 Phases=1 yearly=res_kw_11983_pu

New Load.load_p17ulv2619_2 conn=wye bus1=p17ulv2619.2 kV=0.12 Vminpu=0.8 Vmaxpu=1.2 model=1 kW=4.480926648879515 kvar=0.30389827867828717 Phases=1 yearly=res_kw_11983_pu

New Load.load_p17ulv2627_1 conn=wye bus1=p17ulv2627.1 kV=0.12 Vminpu=0.8 Vmaxpu=1.2 model=1 kW=2.213897176553902 kvar=0.8879753231497963 Phases=1 yearly=res_kw_6308_pu

New Load.load_p17ulv2627_2 conn=wye bus1=p17ulv2627.2 kV=0.12 Vminpu=0.8 Vmaxpu=1.2 model=1 kW=2.213897176553902 kvar=0.8879753231497963 Phases=1 yearly=res_kw_6308_pu

New Load.load_p17ulv2629_1 conn=wye bus1=p17ulv2629.1 kV=0.12 Vminpu=0.8 Vmaxpu=1.2 model=1 kW=1.9634400440168067 kvar=0.8860831185940086 Phases=1 yearly=res_kw_10838_pu

New Load.load_p17ulv2629_2 conn=wye bus1=p17ulv2629.2 kV=0.12 Vminpu=0.8 Vmaxpu=1.2 model=1 kW=1.9634400440168067 kvar=0.8860831185940086 Phases=1 yearly=res_kw_10838_pu

New Load.load_p17ulv2639_1 conn=wye bus1=p17ulv2639.1 kV=0.12 Vminpu=0.8 Vmaxpu=1.2 model=1 kW=7.9207002360022285 kvar=1.0047280844631432 Phases=1 yearly=res_kw_11687_pu

New Load.load_p17ulv2639_2 conn=wye bus1=p17ulv2639.2 kV=0.12 Vminpu=0.8 Vmaxpu=1.2 model=1 kW=7.9207002360022285 kvar=1.0047280844631432 Phases=1 yearly=res_kw_11687_pu

New Load.load_p17ulv2641_1 conn=wye bus1=p17ulv2641.1 kV=0.12 Vminpu=0.8 Vmaxpu=1.2 model=1 kW=6.029340317181467 kvar=0.8428650524659024 Phases=1 yearly=res_kw_7631_pu

New Load.load_p17ulv2641_2 conn=wye bus1=p17ulv2641.2 kV=0.12 Vminpu=0.8 Vmaxpu=1.2 model=1 kW=6.029340317181467 kvar=0.8428650524659024 Phases=1 yearly=res_kw_7631_pu

New Load.load_p17ulv2650_1 conn=wye bus1=p17ulv2650.1 kV=0.12 Vminpu=0.8 Vmaxpu=1.2 model=1 kW=2.4984686592236875 kvar=1.0017960118978075 Phases=1 yearly=res_kw_6262_pu

New Load.load_p17ulv2650_2 conn=wye bus1=p17ulv2650.2 kV=0.12 Vminpu=0.8 Vmaxpu=1.2 model=1 kW=2.4984686592236875 kvar=1.0017960118978075 Phases=1 yearly=res_kw_6262_pu

New Load.load_p17ulv2653_1 conn=wye bus1=p17ulv2653.1 kV=0.12 Vminpu=0.8 Vmaxpu=1.2 model=1 kW=5.961931681908369 kvar=1.679314970659087 Phases=1 yearly=res_kw_7029_pu

New Load.load_p17ulv2653_2 conn=wye bus1=p17ulv2653.2 kV=0.12 Vminpu=0.8 Vmaxpu=1.2 model=1 kW=5.961931681908369 kvar=1.679314970659087 Phases=1 yearly=res_kw_7029_pu

New Load.load_p17ulv2656_1 conn=wye bus1=p17ulv2656.1 kV=0.12 Vminpu=0.8 Vmaxpu=1.2 model=1 kW=4.5380303968664055 kvar=0.9783141552161502 Phases=1 yearly=res_kw_5417_pu

New Load.load_p17ulv2656_2 conn=wye bus1=p17ulv2656.2 kV=0.12 Vminpu=0.8 Vmaxpu=1.2 model=1 kW=4.5380303968664055 kvar=0.9783141552161502 Phases=1 yearly=res_kw_5417_pu

New Load.load_p17ulv2660_1 conn=wye bus1=p17ulv2660.1 kV=0.12 Vminpu=0.8 Vmaxpu=1.2 model=1 kW=3.2294461703671096 kvar=0.5501626615818087 Phases=1 yearly=res_kw_3249_pu

New Load.load_p17ulv2660_2 conn=wye bus1=p17ulv2660.2 kV=0.12 Vminpu=0.8 Vmaxpu=1.2 model=1 kW=3.2294461703671096 kvar=0.5501626615818087 Phases=1 yearly=res_kw_3249_pu

New Load.load_p17ulv2661_1 conn=wye bus1=p17ulv2661.1 kV=0.12 Vminpu=0.8 Vmaxpu=1.2 model=1 kW=2.314954210015221 kvar=1.106584285278311 Phases=1 yearly=res_kw_48_pu

New Load.load_p17ulv2661_2 conn=wye bus1=p17ulv2661.2 kV=0.12 Vminpu=0.8 Vmaxpu=1.2 model=1 kW=2.314954210015221 kvar=1.106584285278311 Phases=1 yearly=res_kw_48_pu

New Load.load_p17ulv2666_1 conn=wye bus1=p17ulv2666.1 kV=0.12 Vminpu=0.8 Vmaxpu=1.2 model=1 kW=4.666791013286256 kvar=1.1771872459147903 Phases=1 yearly=res_kw_13338_pu

New Load.load_p17ulv2666_2 conn=wye bus1=p17ulv2666.2 kV=0.12 Vminpu=0.8 Vmaxpu=1.2 model=1 kW=4.666791013286256 kvar=1.1771872459147903 Phases=1 yearly=res_kw_13338_pu

New Load.load_p17ulv2678_1 conn=wye bus1=p17ulv2678.1 kV=0.12 Vminpu=0.8 Vmaxpu=1.2 model=1 kW=3.9890922542620206 kvar=0.716354988208188 Phases=1 yearly=res_kw_4734_pu

New Load.load_p17ulv2678_2 conn=wye bus1=p17ulv2678.2 kV=0.12 Vminpu=0.8 Vmaxpu=1.2 model=1 kW=3.9890922542620206 kvar=0.716354988208188 Phases=1 yearly=res_kw_4734_pu

New Load.load_p17ulv2707_1 conn=wye bus1=p17ulv2707.1 kV=0.12 Vminpu=0.8 Vmaxpu=1.2 model=1 kW=4.5380303968664055 kvar=0.9783141552161502 Phases=1 yearly=res_kw_5417_pu

New Load.load_p17ulv2707_2 conn=wye bus1=p17ulv2707.2 kV=0.12 Vminpu=0.8 Vmaxpu=1.2 model=1 kW=4.5380303968664055 kvar=0.9783141552161502 Phases=1 yearly=res_kw_5417_pu

New Load.load_p17ulv2716_1 conn=wye bus1=p17ulv2716.1 kV=0.12 Vminpu=0.8 Vmaxpu=1.2 model=1 kW=7.470331096620875 kvar=1.4551284707158825 Phases=1 yearly=res_kw_5640_pu

New Load.load_p17ulv2716_2 conn=wye bus1=p17ulv2716.2 kV=0.12 Vminpu=0.8 Vmaxpu=1.2 model=1 kW=7.470331096620875 kvar=1.4551284707158825 Phases=1 yearly=res_kw_5640_pu

New Load.load_p17ulv2721_1 conn=wye bus1=p17ulv2721.1 kV=0.12 Vminpu=0.8 Vmaxpu=1.2 model=1 kW=3.4605217724966244 kvar=1.0924708586317713 Phases=1 yearly=res_kw_5183_pu

New Load.load_p17ulv2721_2 conn=wye bus1=p17ulv2721.2 kV=0.12 Vminpu=0.8 Vmaxpu=1.2 model=1 kW=3.4605217724966244 kvar=1.0924708586317713 Phases=1 yearly=res_kw_5183_pu

New Load.load_p17ulv2722_1 conn=wye bus1=p17ulv2722.1 kV=0.12 Vminpu=0.8 Vmaxpu=1.2 model=1 kW=4.615456884865972 kvar=1.5306722275935127 Phases=1 yearly=res_kw_5369_pu

New Load.load_p17ulv2722_2 conn=wye bus1=p17ulv2722.2 kV=0.12 Vminpu=0.8 Vmaxpu=1.2 model=1 kW=4.615456884865972 kvar=1.5306722275935127 Phases=1 yearly=res_kw_5369_pu

New Load.load_p17ulv3007_1 conn=wye bus1=p17ulv3007.1 kV=0.12 Vminpu=0.8 Vmaxpu=1.2 model=1 kW=7.315343347041165 kvar=1.4870718604937263 Phases=1 yearly=res_kw_5722_pu

New Load.load_p17ulv3007_2 conn=wye bus1=p17ulv3007.2 kV=0.12 Vminpu=0.8 Vmaxpu=1.2 model=1 kW=7.315343347041165 kvar=1.4870718604937263 Phases=1 yearly=res_kw_5722_pu

New Load.load_p17ulv3069_1 conn=wye bus1=p17ulv3069.1 kV=0.12 Vminpu=0.8 Vmaxpu=1.2 model=1 kW=2.2332898223393483 kvar=0.8287577917098732 Phases=1 yearly=res_kw_2345_pu

New Load.load_p17ulv3069_2 conn=wye bus1=p17ulv3069.2 kV=0.12 Vminpu=0.8 Vmaxpu=1.2 model=1 kW=2.2332898223393483 kvar=0.8287577917098732 Phases=1 yearly=res_kw_2345_pu

New Load.load_p17ulv3092_1 conn=wye bus1=p17ulv3092.1 kV=0.12 Vminpu=0.8 Vmaxpu=1.2 model=1 kW=14.765377040064397 kvar=3.89785828197041 Phases=1 yearly=res_kw_11953_pu

New Load.load_p17ulv3092_2 conn=wye bus1=p17ulv3092.2 kV=0.12 Vminpu=0.8 Vmaxpu=1.2 model=1 kW=14.765377040064397 kvar=3.89785828197041 Phases=1 yearly=res_kw_11953_pu

New Load.load_p17ulv3119_1 conn=wye bus1=p17ulv3119.1 kV=0.12 Vminpu=0.8 Vmaxpu=1.2 model=1 kW=2.6791078770470578 kvar=1.0782522975400575 Phases=1 yearly=res_kw_14529_pu
