New Loadshape.SFO_37.9742_-121.9348_55_225 npts= 35040 interval=0.25 mult = (file=../../../../../profiles/SFO_37.9742_-121.9348_55_225.csv)

New Loadshape.SFO_37.9742_-121.9348_15_135 npts= 35040 interval=0.25 mult = (file=../../../../../profiles/SFO_37.9742_-121.9348_15_135.csv)

New Loadshape.SFO_37.9742_-121.9348_15_180 npts= 35040 interval=0.25 mult = (file=../../../../../profiles/SFO_37.9742_-121.9348_15_180.csv)

New Loadshape.SFO_37.9742_-121.9348_35_225 npts= 35040 interval=0.25 mult = (file=../../../../../profiles/SFO_37.9742_-121.9348_35_225.csv)

New Loadshape.SFO_37.9742_-121.9348_25_135 npts= 35040 interval=0.25 mult = (file=../../../../../profiles/SFO_37.9742_-121.9348_25_135.csv)

New Loadshape.SFO_37.9742_-121.9348_25_90 npts= 35040 interval=0.25 mult = (file=../../../../../profiles/SFO_37.9742_-121.9348_25_90.csv)

New Loadshape.SFO_37.9742_-121.9348_25_180 npts= 35040 interval=0.25 mult = (file=../../../../../profiles/SFO_37.9742_-121.9348_25_180.csv)

New Loadshape.SFO_37.9742_-121.9348_25_225 npts= 35040 interval=0.25 mult = (file=../../../../../profiles/SFO_37.9742_-121.9348_25_225.csv)

New Loadshape.SFO_37.9742_-121.9348_15_270 npts= 35040 interval=0.25 mult = (file=../../../../../profiles/SFO_37.9742_-121.9348_15_270.csv)

New Loadshape.SFO_37.9742_-121.9348_15_225 npts= 35040 interval=0.25 mult = (file=../../../../../profiles/SFO_37.9742_-121.9348_15_225.csv)

New Loadshape.SFO_37.9742_-121.9348_35_135 npts= 35040 interval=0.25 mult = (file=../../../../../profiles/SFO_37.9742_-121.9348_35_135.csv)

New Loadshape.SFO_37.9742_-121.9348_35_270 npts= 35040 interval=0.25 mult = (file=../../../../../profiles/SFO_37.9742_-121.9348_35_270.csv)

New Loadshape.SFO_37.9742_-121.9348_35_90 npts= 35040 interval=0.25 mult = (file=../../../../../profiles/SFO_37.9742_-121.9348_35_90.csv)

New Loadshape.SFO_37.9742_-121.9348_25_270 npts= 35040 interval=0.25 mult = (file=../../../../../profiles/SFO_37.9742_-121.9348_25_270.csv)

New Loadshape.SFO_37.9742_-121.9348_35_180 npts= 35040 interval=0.25 mult = (file=../../../../../profiles/SFO_37.9742_-121.9348_35_180.csv)

New Loadshape.SFO_37.9742_-121.9348_45_135 npts= 35040 interval=0.25 mult = (file=../../../../../profiles/SFO_37.9742_-121.9348_45_135.csv)

New Loadshape.SFO_37.9742_-121.9348_15_90 npts= 35040 interval=0.25 mult = (file=../../../../../profiles/SFO_37.9742_-121.9348_15_90.csv)

New Loadshape.SFO_37.9742_-121.9348_45_180 npts= 35040 interval=0.25 mult = (file=../../../../../profiles/SFO_37.9742_-121.9348_45_180.csv)

New Loadshape.SFO_37.9742_-121.9348_45_225 npts= 35040 interval=0.25 mult = (file=../../../../../profiles/SFO_37.9742_-121.9348_45_225.csv)

New Loadshape.SFO_37.9742_-121.9348_45_270 npts= 35040 interval=0.25 mult = (file=../../../../../profiles/SFO_37.9742_-121.9348_45_270.csv)

New Loadshape.SFO_37.9742_-121.9348_45_90 npts= 35040 interval=0.25 mult = (file=../../../../../profiles/SFO_37.9742_-121.9348_45_90.csv)

New Loadshape.res_kw_14549_pu npts= 35040 interval=0.25 mult = (file=../../../../../profiles/res_kw_14549_pu.csv) qmult = (file=../../../../../profiles/res_kvar_14549_pu.csv)

New Loadshape.res_kw_5656_pu npts= 35040 interval=0.25 mult = (file=../../../../../profiles/res_kw_5656_pu.csv) qmult = (file=../../../../../profiles/res_kvar_5656_pu.csv)

New Loadshape.res_kw_4108_pu npts= 35040 interval=0.25 mult = (file=../../../../../profiles/res_kw_4108_pu.csv) qmult = (file=../../../../../profiles/res_kvar_4108_pu.csv)

New Loadshape.res_kw_3369_pu npts= 35040 interval=0.25 mult = (file=../../../../../profiles/res_kw_3369_pu.csv) qmult = (file=../../../../../profiles/res_kvar_3369_pu.csv)

New Loadshape.res_kw_822_pu npts= 35040 interval=0.25 mult = (file=../../../../../profiles/res_kw_822_pu.csv) qmult = (file=../../../../../profiles/res_kvar_822_pu.csv)

New Loadshape.res_kw_7851_pu npts= 35040 interval=0.25 mult = (file=../../../../../profiles/res_kw_7851_pu.csv) qmult = (file=../../../../../profiles/res_kvar_7851_pu.csv)

New Loadshape.res_kw_13671_pu npts= 35040 interval=0.25 mult = (file=../../../../../profiles/res_kw_13671_pu.csv) qmult = (file=../../../../../profiles/res_kvar_13671_pu.csv)

New Loadshape.res_kw_12803_pu npts= 35040 interval=0.25 mult = (file=../../../../../profiles/res_kw_12803_pu.csv) qmult = (file=../../../../../profiles/res_kvar_12803_pu.csv)

New Loadshape.res_kw_6087_pu npts= 35040 interval=0.25 mult = (file=../../../../../profiles/res_kw_6087_pu.csv) qmult = (file=../../../../../profiles/res_kvar_6087_pu.csv)

New Loadshape.res_kw_2494_pu npts= 35040 interval=0.25 mult = (file=../../../../../profiles/res_kw_2494_pu.csv) qmult = (file=../../../../../profiles/res_kvar_2494_pu.csv)

New Loadshape.res_kw_4012_pu npts= 35040 interval=0.25 mult = (file=../../../../../profiles/res_kw_4012_pu.csv) qmult = (file=../../../../../profiles/res_kvar_4012_pu.csv)

New Loadshape.res_kw_13338_pu npts= 35040 interval=0.25 mult = (file=../../../../../profiles/res_kw_13338_pu.csv) qmult = (file=../../../../../profiles/res_kvar_13338_pu.csv)

New Loadshape.res_kw_7029_pu npts= 35040 interval=0.25 mult = (file=../../../../../profiles/res_kw_7029_pu.csv) qmult = (file=../../../../../profiles/res_kvar_7029_pu.csv)

New Loadshape.res_kw_8883_pu npts= 35040 interval=0.25 mult = (file=../../../../../profiles/res_kw_8883_pu.csv) qmult = (file=../../../../../profiles/res_kvar_8883_pu.csv)

New Loadshape.res_kw_48_pu npts= 35040 interval=0.25 mult = (file=../../../../../profiles/res_kw_48_pu.csv) qmult = (file=../../../../../profiles/res_kvar_48_pu.csv)

New Loadshape.res_kw_7457_pu npts= 35040 interval=0.25 mult = (file=../../../../../profiles/res_kw_7457_pu.csv) qmult = (file=../../../../../profiles/res_kvar_7457_pu.csv)

New Loadshape.res_kw_7389_pu npts= 35040 interval=0.25 mult = (file=../../../../../profiles/res_kw_7389_pu.csv) qmult = (file=../../../../../profiles/res_kvar_7389_pu.csv)

New Loadshape.res_kw_13866_pu npts= 35040 interval=0.25 mult = (file=../../../../../profiles/res_kw_13866_pu.csv) qmult = (file=../../../../../profiles/res_kvar_13866_pu.csv)

New Loadshape.res_kw_12943_pu npts= 35040 interval=0.25 mult = (file=../../../../../profiles/res_kw_12943_pu.csv) qmult = (file=../../../../../profiles/res_kvar_12943_pu.csv)

New Loadshape.res_kw_1201_pu npts= 35040 interval=0.25 mult = (file=../../../../../profiles/res_kw_1201_pu.csv) qmult = (file=../../../../../profiles/res_kvar_1201_pu.csv)

New Loadshape.res_kw_6196_pu npts= 35040 interval=0.25 mult = (file=../../../../../profiles/res_kw_6196_pu.csv) qmult = (file=../../../../../profiles/res_kvar_6196_pu.csv)

New Loadshape.res_kw_13700_pu npts= 35040 interval=0.25 mult = (file=../../../../../profiles/res_kw_13700_pu.csv) qmult = (file=../../../../../profiles/res_kvar_13700_pu.csv)

New Loadshape.res_kw_960_pu npts= 35040 interval=0.25 mult = (file=../../../../../profiles/res_kw_960_pu.csv) qmult = (file=../../../../../profiles/res_kvar_960_pu.csv)

New Loadshape.res_kw_7596_pu npts= 35040 interval=0.25 mult = (file=../../../../../profiles/res_kw_7596_pu.csv) qmult = (file=../../../../../profiles/res_kvar_7596_pu.csv)

New Loadshape.res_kw_2345_pu npts= 35040 interval=0.25 mult = (file=../../../../../profiles/res_kw_2345_pu.csv) qmult = (file=../../../../../profiles/res_kvar_2345_pu.csv)

New Loadshape.res_kw_5183_pu npts= 35040 interval=0.25 mult = (file=../../../../../profiles/res_kw_5183_pu.csv) qmult = (file=../../../../../profiles/res_kvar_5183_pu.csv)

New Loadshape.res_kw_3630_pu npts= 35040 interval=0.25 mult = (file=../../../../../profiles/res_kw_3630_pu.csv) qmult = (file=../../../../../profiles/res_kvar_3630_pu.csv)

New Loadshape.res_kw_2514_pu npts= 35040 interval=0.25 mult = (file=../../../../../profiles/res_kw_2514_pu.csv) qmult = (file=../../../../../profiles/res_kvar_2514_pu.csv)

New Loadshape.res_kw_4694_pu npts= 35040 interval=0.25 mult = (file=../../../../../profiles/res_kw_4694_pu.csv) qmult = (file=../../../../../profiles/res_kvar_4694_pu.csv)

New Loadshape.res_kw_6262_pu npts= 35040 interval=0.25 mult = (file=../../../../../profiles/res_kw_6262_pu.csv) qmult = (file=../../../../../profiles/res_kvar_6262_pu.csv)

New Loadshape.res_kw_4734_pu npts= 35040 interval=0.25 mult = (file=../../../../../profiles/res_kw_4734_pu.csv) qmult = (file=../../../../../profiles/res_kvar_4734_pu.csv)

New Loadshape.res_kw_15001_pu npts= 35040 interval=0.25 mult = (file=../../../../../profiles/res_kw_15001_pu.csv) qmult = (file=../../../../../profiles/res_kvar_15001_pu.csv)

New Loadshape.res_kw_5417_pu npts= 35040 interval=0.25 mult = (file=../../../../../profiles/res_kw_5417_pu.csv) qmult = (file=../../../../../profiles/res_kvar_5417_pu.csv)

New Loadshape.res_kw_14615_pu npts= 35040 interval=0.25 mult = (file=../../../../../profiles/res_kw_14615_pu.csv) qmult = (file=../../../../../profiles/res_kvar_14615_pu.csv)

New Loadshape.res_kw_1989_pu npts= 35040 interval=0.25 mult = (file=../../../../../profiles/res_kw_1989_pu.csv) qmult = (file=../../../../../profiles/res_kvar_1989_pu.csv)

New Loadshape.res_kw_5231_pu npts= 35040 interval=0.25 mult = (file=../../../../../profiles/res_kw_5231_pu.csv) qmult = (file=../../../../../profiles/res_kvar_5231_pu.csv)

New Loadshape.res_kw_10487_pu npts= 35040 interval=0.25 mult = (file=../../../../../profiles/res_kw_10487_pu.csv) qmult = (file=../../../../../profiles/res_kvar_10487_pu.csv)

New Loadshape.res_kw_4586_pu npts= 35040 interval=0.25 mult = (file=../../../../../profiles/res_kw_4586_pu.csv) qmult = (file=../../../../../profiles/res_kvar_4586_pu.csv)

New Loadshape.res_kw_3977_pu npts= 35040 interval=0.25 mult = (file=../../../../../profiles/res_kw_3977_pu.csv) qmult = (file=../../../../../profiles/res_kvar_3977_pu.csv)

New Loadshape.res_kw_13258_pu npts= 35040 interval=0.25 mult = (file=../../../../../profiles/res_kw_13258_pu.csv) qmult = (file=../../../../../profiles/res_kvar_13258_pu.csv)

New Loadshape.res_kw_7631_pu npts= 35040 interval=0.25 mult = (file=../../../../../profiles/res_kw_7631_pu.csv) qmult = (file=../../../../../profiles/res_kvar_7631_pu.csv)

New Loadshape.res_kw_6975_pu npts= 35040 interval=0.25 mult = (file=../../../../../profiles/res_kw_6975_pu.csv) qmult = (file=../../../../../profiles/res_kvar_6975_pu.csv)

New Loadshape.res_kw_8121_pu npts= 35040 interval=0.25 mult = (file=../../../../../profiles/res_kw_8121_pu.csv) qmult = (file=../../../../../profiles/res_kvar_8121_pu.csv)

New Loadshape.res_kw_2365_pu npts= 35040 interval=0.25 mult = (file=../../../../../profiles/res_kw_2365_pu.csv) qmult = (file=../../../../../profiles/res_kvar_2365_pu.csv)

New Loadshape.res_kw_1389_pu npts= 35040 interval=0.25 mult = (file=../../../../../profiles/res_kw_1389_pu.csv) qmult = (file=../../../../../profiles/res_kvar_1389_pu.csv)

New Loadshape.res_kw_1949_pu npts= 35040 interval=0.25 mult = (file=../../../../../profiles/res_kw_1949_pu.csv) qmult = (file=../../../../../profiles/res_kvar_1949_pu.csv)

New Loadshape.res_kw_6240_pu npts= 35040 interval=0.25 mult = (file=../../../../../profiles/res_kw_6240_pu.csv) qmult = (file=../../../../../profiles/res_kvar_6240_pu.csv)

New Loadshape.res_kw_9131_pu npts= 35040 interval=0.25 mult = (file=../../../../../profiles/res_kw_9131_pu.csv) qmult = (file=../../../../../profiles/res_kvar_9131_pu.csv)

New Loadshape.res_kw_6166_pu npts= 35040 interval=0.25 mult = (file=../../../../../profiles/res_kw_6166_pu.csv) qmult = (file=../../../../../profiles/res_kvar_6166_pu.csv)

New Loadshape.res_kw_11106_pu npts= 35040 interval=0.25 mult = (file=../../../../../profiles/res_kw_11106_pu.csv) qmult = (file=../../../../../profiles/res_kvar_11106_pu.csv)

New Loadshape.res_kw_7472_pu npts= 35040 interval=0.25 mult = (file=../../../../../profiles/res_kw_7472_pu.csv) qmult = (file=../../../../../profiles/res_kvar_7472_pu.csv)

New Loadshape.res_kw_13363_pu npts= 35040 interval=0.25 mult = (file=../../../../../profiles/res_kw_13363_pu.csv) qmult = (file=../../../../../profiles/res_kvar_13363_pu.csv)

New Loadshape.res_kw_14411_pu npts= 35040 interval=0.25 mult = (file=../../../../../profiles/res_kw_14411_pu.csv) qmult = (file=../../../../../profiles/res_kvar_14411_pu.csv)

New Loadshape.res_kw_8466_pu npts= 35040 interval=0.25 mult = (file=../../../../../profiles/res_kw_8466_pu.csv) qmult = (file=../../../../../profiles/res_kvar_8466_pu.csv)

New Loadshape.res_kw_200_pu npts= 35040 interval=0.25 mult = (file=../../../../../profiles/res_kw_200_pu.csv) qmult = (file=../../../../../profiles/res_kvar_200_pu.csv)

New Loadshape.res_kw_11983_pu npts= 35040 interval=0.25 mult = (file=../../../../../profiles/res_kw_11983_pu.csv) qmult = (file=../../../../../profiles/res_kvar_11983_pu.csv)

New Loadshape.res_kw_6308_pu npts= 35040 interval=0.25 mult = (file=../../../../../profiles/res_kw_6308_pu.csv) qmult = (file=../../../../../profiles/res_kvar_6308_pu.csv)

New Loadshape.res_kw_10838_pu npts= 35040 interval=0.25 mult = (file=../../../../../profiles/res_kw_10838_pu.csv) qmult = (file=../../../../../profiles/res_kvar_10838_pu.csv)

New Loadshape.res_kw_11687_pu npts= 35040 interval=0.25 mult = (file=../../../../../profiles/res_kw_11687_pu.csv) qmult = (file=../../../../../profiles/res_kvar_11687_pu.csv)

New Loadshape.res_kw_3249_pu npts= 35040 interval=0.25 mult = (file=../../../../../profiles/res_kw_3249_pu.csv) qmult = (file=../../../../../profiles/res_kvar_3249_pu.csv)

New Loadshape.res_kw_5640_pu npts= 35040 interval=0.25 mult = (file=../../../../../profiles/res_kw_5640_pu.csv) qmult = (file=../../../../../profiles/res_kvar_5640_pu.csv)

New Loadshape.res_kw_5369_pu npts= 35040 interval=0.25 mult = (file=../../../../../profiles/res_kw_5369_pu.csv) qmult = (file=../../../../../profiles/res_kvar_5369_pu.csv)

New Loadshape.res_kw_5722_pu npts= 35040 interval=0.25 mult = (file=../../../../../profiles/res_kw_5722_pu.csv) qmult = (file=../../../../../profiles/res_kvar_5722_pu.csv)

New Loadshape.res_kw_11953_pu npts= 35040 interval=0.25 mult = (file=../../../../../profiles/res_kw_11953_pu.csv) qmult = (file=../../../../../profiles/res_kvar_11953_pu.csv)

New Loadshape.res_kw_14529_pu npts= 35040 interval=0.25 mult = (file=../../../../../profiles/res_kw_14529_pu.csv) qmult = (file=../../../../../profiles/res_kvar_14529_pu.csv)

New Loadshape.res_kw_2868_pu npts= 35040 interval=0.25 mult = (file=../../../../../profiles/res_kw_2868_pu.csv) qmult = (file=../../../../../profiles/res_kvar_2868_pu.csv)

New Loadshape.res_kw_1509_pu npts= 35040 interval=0.25 mult = (file=../../../../../profiles/res_kw_1509_pu.csv) qmult = (file=../../../../../profiles/res_kvar_1509_pu.csv)

New Loadshape.res_kw_557_pu npts= 35040 interval=0.25 mult = (file=../../../../../profiles/res_kw_557_pu.csv) qmult = (file=../../../../../profiles/res_kvar_557_pu.csv)

New Loadshape.res_kw_13931_pu npts= 35040 interval=0.25 mult = (file=../../../../../profiles/res_kw_13931_pu.csv) qmult = (file=../../../../../profiles/res_kvar_13931_pu.csv)

New Loadshape.res_kw_9454_pu npts= 35040 interval=0.25 mult = (file=../../../../../profiles/res_kw_9454_pu.csv) qmult = (file=../../../../../profiles/res_kvar_9454_pu.csv)

New Loadshape.res_kw_2882_pu npts= 35040 interval=0.25 mult = (file=../../../../../profiles/res_kw_2882_pu.csv) qmult = (file=../../../../../profiles/res_kvar_2882_pu.csv)

New Loadshape.res_kw_12655_pu npts= 35040 interval=0.25 mult = (file=../../../../../profiles/res_kw_12655_pu.csv) qmult = (file=../../../../../profiles/res_kvar_12655_pu.csv)

New Loadshape.res_kw_5668_pu npts= 35040 interval=0.25 mult = (file=../../../../../profiles/res_kw_5668_pu.csv) qmult = (file=../../../../../profiles/res_kvar_5668_pu.csv)

New Loadshape.res_kw_14962_pu npts= 35040 interval=0.25 mult = (file=../../../../../profiles/res_kw_14962_pu.csv) qmult = (file=../../../../../profiles/res_kvar_14962_pu.csv)

New Loadshape.res_kw_14093_pu npts= 35040 interval=0.25 mult = (file=../../../../../profiles/res_kw_14093_pu.csv) qmult = (file=../../../../../profiles/res_kvar_14093_pu.csv)

New Loadshape.res_kw_7659_pu npts= 35040 interval=0.25 mult = (file=../../../../../profiles/res_kw_7659_pu.csv) qmult = (file=../../../../../profiles/res_kvar_7659_pu.csv)

New Loadshape.res_kw_12376_pu npts= 35040 interval=0.25 mult = (file=../../../../../profiles/res_kw_12376_pu.csv) qmult = (file=../../../../../profiles/res_kvar_12376_pu.csv)

New Loadshape.res_kw_2859_pu npts= 35040 interval=0.25 mult = (file=../../../../../profiles/res_kw_2859_pu.csv) qmult = (file=../../../../../profiles/res_kvar_2859_pu.csv)

New Loadshape.res_kw_10169_pu npts= 35040 interval=0.25 mult = (file=../../../../../profiles/res_kw_10169_pu.csv) qmult = (file=../../../../../profiles/res_kvar_10169_pu.csv)

New Loadshape.res_kw_9871_pu npts= 35040 interval=0.25 mult = (file=../../../../../profiles/res_kw_9871_pu.csv) qmult = (file=../../../../../profiles/res_kvar_9871_pu.csv)

New Loadshape.res_kw_4882_pu npts= 35040 interval=0.25 mult = (file=../../../../../profiles/res_kw_4882_pu.csv) qmult = (file=../../../../../profiles/res_kvar_4882_pu.csv)

New Loadshape.res_kw_7001_pu npts= 35040 interval=0.25 mult = (file=../../../../../profiles/res_kw_7001_pu.csv) qmult = (file=../../../../../profiles/res_kvar_7001_pu.csv)

New Loadshape.res_kw_4976_pu npts= 35040 interval=0.25 mult = (file=../../../../../profiles/res_kw_4976_pu.csv) qmult = (file=../../../../../profiles/res_kvar_4976_pu.csv)

New Loadshape.res_kw_8349_pu npts= 35040 interval=0.25 mult = (file=../../../../../profiles/res_kw_8349_pu.csv) qmult = (file=../../../../../profiles/res_kvar_8349_pu.csv)

New Loadshape.res_kw_7820_pu npts= 35040 interval=0.25 mult = (file=../../../../../profiles/res_kw_7820_pu.csv) qmult = (file=../../../../../profiles/res_kvar_7820_pu.csv)

New Loadshape.res_kw_8118_pu npts= 35040 interval=0.25 mult = (file=../../../../../profiles/res_kw_8118_pu.csv) qmult = (file=../../../../../profiles/res_kvar_8118_pu.csv)

New Loadshape.res_kw_9589_pu npts= 35040 interval=0.25 mult = (file=../../../../../profiles/res_kw_9589_pu.csv) qmult = (file=../../../../../profiles/res_kvar_9589_pu.csv)

New Loadshape.res_kw_7506_pu npts= 35040 interval=0.25 mult = (file=../../../../../profiles/res_kw_7506_pu.csv) qmult = (file=../../../../../profiles/res_kvar_7506_pu.csv)

New Loadshape.res_kw_8748_pu npts= 35040 interval=0.25 mult = (file=../../../../../profiles/res_kw_8748_pu.csv) qmult = (file=../../../../../profiles/res_kvar_8748_pu.csv)

New Loadshape.res_kw_845_pu npts= 35040 interval=0.25 mult = (file=../../../../../profiles/res_kw_845_pu.csv) qmult = (file=../../../../../profiles/res_kvar_845_pu.csv)

New Loadshape.res_kw_13167_pu npts= 35040 interval=0.25 mult = (file=../../../../../profiles/res_kw_13167_pu.csv) qmult = (file=../../../../../profiles/res_kvar_13167_pu.csv)

New Loadshape.res_kw_10641_pu npts= 35040 interval=0.25 mult = (file=../../../../../profiles/res_kw_10641_pu.csv) qmult = (file=../../../../../profiles/res_kvar_10641_pu.csv)

New Loadshape.res_kw_7810_pu npts= 35040 interval=0.25 mult = (file=../../../../../profiles/res_kw_7810_pu.csv) qmult = (file=../../../../../profiles/res_kvar_7810_pu.csv)

New Loadshape.res_kw_3707_pu npts= 35040 interval=0.25 mult = (file=../../../../../profiles/res_kw_3707_pu.csv) qmult = (file=../../../../../profiles/res_kvar_3707_pu.csv)

New Loadshape.res_kw_3899_pu npts= 35040 interval=0.25 mult = (file=../../../../../profiles/res_kw_3899_pu.csv) qmult = (file=../../../../../profiles/res_kvar_3899_pu.csv)

New Loadshape.res_kw_4458_pu npts= 35040 interval=0.25 mult = (file=../../../../../profiles/res_kw_4458_pu.csv) qmult = (file=../../../../../profiles/res_kvar_4458_pu.csv)

New Loadshape.res_kw_6530_pu npts= 35040 interval=0.25 mult = (file=../../../../../profiles/res_kw_6530_pu.csv) qmult = (file=../../../../../profiles/res_kvar_6530_pu.csv)

New Loadshape.res_kw_13008_pu npts= 35040 interval=0.25 mult = (file=../../../../../profiles/res_kw_13008_pu.csv) qmult = (file=../../../../../profiles/res_kvar_13008_pu.csv)

New Loadshape.res_kw_4670_pu npts= 35040 interval=0.25 mult = (file=../../../../../profiles/res_kw_4670_pu.csv) qmult = (file=../../../../../profiles/res_kvar_4670_pu.csv)

New Loadshape.res_kw_718_pu npts= 35040 interval=0.25 mult = (file=../../../../../profiles/res_kw_718_pu.csv) qmult = (file=../../../../../profiles/res_kvar_718_pu.csv)

New Loadshape.res_kw_4811_pu npts= 35040 interval=0.25 mult = (file=../../../../../profiles/res_kw_4811_pu.csv) qmult = (file=../../../../../profiles/res_kvar_4811_pu.csv)

New Loadshape.res_kw_638_pu npts= 35040 interval=0.25 mult = (file=../../../../../profiles/res_kw_638_pu.csv) qmult = (file=../../../../../profiles/res_kvar_638_pu.csv)

New Loadshape.res_kw_11306_pu npts= 35040 interval=0.25 mult = (file=../../../../../profiles/res_kw_11306_pu.csv) qmult = (file=../../../../../profiles/res_kvar_11306_pu.csv)

New Loadshape.res_kw_6805_pu npts= 35040 interval=0.25 mult = (file=../../../../../profiles/res_kw_6805_pu.csv) qmult = (file=../../../../../profiles/res_kvar_6805_pu.csv)

New Loadshape.res_kw_14394_pu npts= 35040 interval=0.25 mult = (file=../../../../../profiles/res_kw_14394_pu.csv) qmult = (file=../../../../../profiles/res_kvar_14394_pu.csv)

New Loadshape.res_kw_643_pu npts= 35040 interval=0.25 mult = (file=../../../../../profiles/res_kw_643_pu.csv) qmult = (file=../../../../../profiles/res_kvar_643_pu.csv)

New Loadshape.res_kw_694_pu npts= 35040 interval=0.25 mult = (file=../../../../../profiles/res_kw_694_pu.csv) qmult = (file=../../../../../profiles/res_kvar_694_pu.csv)

New Loadshape.res_kw_7096_pu npts= 35040 interval=0.25 mult = (file=../../../../../profiles/res_kw_7096_pu.csv) qmult = (file=../../../../../profiles/res_kvar_7096_pu.csv)

New Loadshape.res_kw_5423_pu npts= 35040 interval=0.25 mult = (file=../../../../../profiles/res_kw_5423_pu.csv) qmult = (file=../../../../../profiles/res_kvar_5423_pu.csv)

New Loadshape.res_kw_11510_pu npts= 35040 interval=0.25 mult = (file=../../../../../profiles/res_kw_11510_pu.csv) qmult = (file=../../../../../profiles/res_kvar_11510_pu.csv)

New Loadshape.res_kw_10831_pu npts= 35040 interval=0.25 mult = (file=../../../../../profiles/res_kw_10831_pu.csv) qmult = (file=../../../../../profiles/res_kvar_10831_pu.csv)

New Loadshape.res_kw_1140_pu npts= 35040 interval=0.25 mult = (file=../../../../../profiles/res_kw_1140_pu.csv) qmult = (file=../../../../../profiles/res_kvar_1140_pu.csv)

New Loadshape.res_kw_456_pu npts= 35040 interval=0.25 mult = (file=../../../../../profiles/res_kw_456_pu.csv) qmult = (file=../../../../../profiles/res_kvar_456_pu.csv)

New Loadshape.res_kw_3262_pu npts= 35040 interval=0.25 mult = (file=../../../../../profiles/res_kw_3262_pu.csv) qmult = (file=../../../../../profiles/res_kvar_3262_pu.csv)

New Loadshape.res_kw_9385_pu npts= 35040 interval=0.25 mult = (file=../../../../../profiles/res_kw_9385_pu.csv) qmult = (file=../../../../../profiles/res_kvar_9385_pu.csv)

New Loadshape.res_kw_11859_pu npts= 35040 interval=0.25 mult = (file=../../../../../profiles/res_kw_11859_pu.csv) qmult = (file=../../../../../profiles/res_kvar_11859_pu.csv)

New Loadshape.res_kw_15158_pu npts= 35040 interval=0.25 mult = (file=../../../../../profiles/res_kw_15158_pu.csv) qmult = (file=../../../../../profiles/res_kvar_15158_pu.csv)

New Loadshape.res_kw_13271_pu npts= 35040 interval=0.25 mult = (file=../../../../../profiles/res_kw_13271_pu.csv) qmult = (file=../../../../../profiles/res_kvar_13271_pu.csv)

New Loadshape.res_kw_7385_pu npts= 35040 interval=0.25 mult = (file=../../../../../profiles/res_kw_7385_pu.csv) qmult = (file=../../../../../profiles/res_kvar_7385_pu.csv)

New Loadshape.res_kw_10985_pu npts= 35040 interval=0.25 mult = (file=../../../../../profiles/res_kw_10985_pu.csv) qmult = (file=../../../../../profiles/res_kvar_10985_pu.csv)

New Loadshape.res_kw_6607_pu npts= 35040 interval=0.25 mult = (file=../../../../../profiles/res_kw_6607_pu.csv) qmult = (file=../../../../../profiles/res_kvar_6607_pu.csv)

New Loadshape.res_kw_12348_pu npts= 35040 interval=0.25 mult = (file=../../../../../profiles/res_kw_12348_pu.csv) qmult = (file=../../../../../profiles/res_kvar_12348_pu.csv)

New Loadshape.res_kw_8369_pu npts= 35040 interval=0.25 mult = (file=../../../../../profiles/res_kw_8369_pu.csv) qmult = (file=../../../../../profiles/res_kvar_8369_pu.csv)

New Loadshape.res_kw_11943_pu npts= 35040 interval=0.25 mult = (file=../../../../../profiles/res_kw_11943_pu.csv) qmult = (file=../../../../../profiles/res_kvar_11943_pu.csv)

New Loadshape.res_kw_11823_pu npts= 35040 interval=0.25 mult = (file=../../../../../profiles/res_kw_11823_pu.csv) qmult = (file=../../../../../profiles/res_kvar_11823_pu.csv)

New Loadshape.res_kw_12610_pu npts= 35040 interval=0.25 mult = (file=../../../../../profiles/res_kw_12610_pu.csv) qmult = (file=../../../../../profiles/res_kvar_12610_pu.csv)

New Loadshape.res_kw_13532_pu npts= 35040 interval=0.25 mult = (file=../../../../../profiles/res_kw_13532_pu.csv) qmult = (file=../../../../../profiles/res_kvar_13532_pu.csv)

New Loadshape.res_kw_1657_pu npts= 35040 interval=0.25 mult = (file=../../../../../profiles/res_kw_1657_pu.csv) qmult = (file=../../../../../profiles/res_kvar_1657_pu.csv)

New Loadshape.res_kw_7847_pu npts= 35040 interval=0.25 mult = (file=../../../../../profiles/res_kw_7847_pu.csv) qmult = (file=../../../../../profiles/res_kvar_7847_pu.csv)

New Loadshape.res_kw_2763_pu npts= 35040 interval=0.25 mult = (file=../../../../../profiles/res_kw_2763_pu.csv) qmult = (file=../../../../../profiles/res_kvar_2763_pu.csv)

New Loadshape.res_kw_10231_pu npts= 35040 interval=0.25 mult = (file=../../../../../profiles/res_kw_10231_pu.csv) qmult = (file=../../../../../profiles/res_kvar_10231_pu.csv)

New Loadshape.res_kw_1982_pu npts= 35040 interval=0.25 mult = (file=../../../../../profiles/res_kw_1982_pu.csv) qmult = (file=../../../../../profiles/res_kvar_1982_pu.csv)

New Loadshape.res_kw_15065_pu npts= 35040 interval=0.25 mult = (file=../../../../../profiles/res_kw_15065_pu.csv) qmult = (file=../../../../../profiles/res_kvar_15065_pu.csv)

New Loadshape.res_kw_2255_pu npts= 35040 interval=0.25 mult = (file=../../../../../profiles/res_kw_2255_pu.csv) qmult = (file=../../../../../profiles/res_kvar_2255_pu.csv)

New Loadshape.res_kw_12208_pu npts= 35040 interval=0.25 mult = (file=../../../../../profiles/res_kw_12208_pu.csv) qmult = (file=../../../../../profiles/res_kvar_12208_pu.csv)

New Loadshape.res_kw_1180_pu npts= 35040 interval=0.25 mult = (file=../../../../../profiles/res_kw_1180_pu.csv) qmult = (file=../../../../../profiles/res_kvar_1180_pu.csv)

New Loadshape.res_kw_839_pu npts= 35040 interval=0.25 mult = (file=../../../../../profiles/res_kw_839_pu.csv) qmult = (file=../../../../../profiles/res_kvar_839_pu.csv)

New Loadshape.res_kw_5610_pu npts= 35040 interval=0.25 mult = (file=../../../../../profiles/res_kw_5610_pu.csv) qmult = (file=../../../../../profiles/res_kvar_5610_pu.csv)

New Loadshape.res_kw_10629_pu npts= 35040 interval=0.25 mult = (file=../../../../../profiles/res_kw_10629_pu.csv) qmult = (file=../../../../../profiles/res_kvar_10629_pu.csv)

New Loadshape.res_kw_8239_pu npts= 35040 interval=0.25 mult = (file=../../../../../profiles/res_kw_8239_pu.csv) qmult = (file=../../../../../profiles/res_kvar_8239_pu.csv)

New Loadshape.res_kw_10595_pu npts= 35040 interval=0.25 mult = (file=../../../../../profiles/res_kw_10595_pu.csv) qmult = (file=../../../../../profiles/res_kvar_10595_pu.csv)

New Loadshape.res_kw_442_pu npts= 35040 interval=0.25 mult = (file=../../../../../profiles/res_kw_442_pu.csv) qmult = (file=../../../../../profiles/res_kvar_442_pu.csv)

New Loadshape.res_kw_13589_pu npts= 35040 interval=0.25 mult = (file=../../../../../profiles/res_kw_13589_pu.csv) qmult = (file=../../../../../profiles/res_kvar_13589_pu.csv)

New Loadshape.res_kw_1829_pu npts= 35040 interval=0.25 mult = (file=../../../../../profiles/res_kw_1829_pu.csv) qmult = (file=../../../../../profiles/res_kvar_1829_pu.csv)

New Loadshape.res_kw_12125_pu npts= 35040 interval=0.25 mult = (file=../../../../../profiles/res_kw_12125_pu.csv) qmult = (file=../../../../../profiles/res_kvar_12125_pu.csv)

New Loadshape.res_kw_4856_pu npts= 35040 interval=0.25 mult = (file=../../../../../profiles/res_kw_4856_pu.csv) qmult = (file=../../../../../profiles/res_kvar_4856_pu.csv)

New Loadshape.res_kw_13015_pu npts= 35040 interval=0.25 mult = (file=../../../../../profiles/res_kw_13015_pu.csv) qmult = (file=../../../../../profiles/res_kvar_13015_pu.csv)

New Loadshape.res_kw_9045_pu npts= 35040 interval=0.25 mult = (file=../../../../../profiles/res_kw_9045_pu.csv) qmult = (file=../../../../../profiles/res_kvar_9045_pu.csv)

New Loadshape.res_kw_14004_pu npts= 35040 interval=0.25 mult = (file=../../../../../profiles/res_kw_14004_pu.csv) qmult = (file=../../../../../profiles/res_kvar_14004_pu.csv)

New Loadshape.res_kw_9050_pu npts= 35040 interval=0.25 mult = (file=../../../../../profiles/res_kw_9050_pu.csv) qmult = (file=../../../../../profiles/res_kvar_9050_pu.csv)

New Loadshape.res_kw_6602_pu npts= 35040 interval=0.25 mult = (file=../../../../../profiles/res_kw_6602_pu.csv) qmult = (file=../../../../../profiles/res_kvar_6602_pu.csv)

New Loadshape.res_kw_1335_pu npts= 35040 interval=0.25 mult = (file=../../../../../profiles/res_kw_1335_pu.csv) qmult = (file=../../../../../profiles/res_kvar_1335_pu.csv)

New Loadshape.res_kw_14038_pu npts= 35040 interval=0.25 mult = (file=../../../../../profiles/res_kw_14038_pu.csv) qmult = (file=../../../../../profiles/res_kvar_14038_pu.csv)

New Loadshape.res_kw_7885_pu npts= 35040 interval=0.25 mult = (file=../../../../../profiles/res_kw_7885_pu.csv) qmult = (file=../../../../../profiles/res_kvar_7885_pu.csv)

New Loadshape.res_kw_8494_pu npts= 35040 interval=0.25 mult = (file=../../../../../profiles/res_kw_8494_pu.csv) qmult = (file=../../../../../profiles/res_kvar_8494_pu.csv)
