New Line.l(r:p17udm5172-p17ulv4648) Units=km Length=0.0280124 bus1=p17udm5172.1.2 bus2=p17ulv4648.1.2 switch=n enabled=y phases=2 Linecode=1P_OH_AL_4/0_Zuzara_2

New Line.l(r:p17udm5172-p17udt1216lv) Units=km Length=0.0187927 bus1=p17udt1216lv.1.2 bus2=p17udm5172.1.2 switch=n enabled=y phases=2 Linecode=1P_OH_AL_2/0_Rucina_2

New Line.l(r:p17udm5173-p17ulv4722) Units=km Length=0.015114200000000001 bus1=p17udm5173.1.2 bus2=p17ulv4722.1.2 switch=n enabled=y phases=2 Linecode=1P_OH_AL_2/0_Rucina_2

New Line.l(r:p17udm5173-p17udt1216lv) Units=km Length=0.0188026 bus1=p17udt1216lv.1.2 bus2=p17udm5173.1.2 switch=n enabled=y phases=2 Linecode=1P_OH_AL_2/0_Rucina_2

New Line.l(r:p17udt1222lv-p17ulv4656) Units=km Length=0.0224419 bus1=p17udt1222lv.1.2 bus2=p17ulv4656.1.2 switch=n enabled=y phases=2 Linecode=1P_OH_AL_2/0_Rucina_2

New Line.l(r:p17udt1222lv-p17ulv4842) Units=km Length=0.0498915 bus1=p17udt1222lv.1.2 bus2=p17ulv4842.1.2 switch=n enabled=y phases=2 Linecode=1P_OH_AL_4/0_Zuzara_2

New Line.l(r:p17udm5195-p17ulv4709) Units=km Length=0.0251517 bus1=p17udm5195.1.2 bus2=p17ulv4709.1.2 switch=n enabled=y phases=2 Linecode=1P_OH_AL_2/0_Rucina_2

New Line.l(r:p17udm5195-p17udt1222lv) Units=km Length=0.0179503 bus1=p17udt1222lv.1.2 bus2=p17udm5195.1.2 switch=n enabled=y phases=2 Linecode=1P_OH_AL_2/0_Rucina_2

New Line.l(r:p17udt1227lv-p17ulv4672) Units=km Length=0.0690663 bus1=p17udt1227lv.1.2 bus2=p17ulv4672.1.2 switch=n enabled=y phases=2 Linecode=1P_OH_AL_4/0_Zuzara_2

New Line.l(r:p17udt1229lv-p17ulv4675) Units=km Length=0.0402998 bus1=p17udt1229lv.1.2 bus2=p17ulv4675.1.2 switch=n enabled=y phases=2 Linecode=1P_OH_AL_4/0_Zuzara_2

New Line.l(r:p17udt1229lv-p17ulv5133) Units=km Length=0.0097851 bus1=p17udt1229lv.1.2 bus2=p17ulv5133.1.2 switch=n enabled=y phases=2 Linecode=1P_OH_AL_2/0_Rucina_2

New Line.l(r:p17udm5218-p17ulv4710) Units=km Length=0.0094368 bus1=p17udm5218.1.2 bus2=p17ulv4710.1.2 switch=n enabled=y phases=2 Linecode=1P_OH_AL_2/0_Rucina_2

New Line.l(r:p17udm5218-p17ulv4715) Units=km Length=0.034285 bus1=p17udm5218.1.2 bus2=p17ulv4715.1.2 switch=n enabled=y phases=2 Linecode=1P_OH_AL_4/0_Zuzara_2

New Line.l(r:p17udm5217-p17ulv4688) Units=km Length=0.0204825 bus1=p17udm5217.1.2 bus2=p17ulv4688.1.2 switch=n enabled=y phases=2 Linecode=1P_OH_AL_2/0_Rucina_2

New Line.l(r:p17udm5217-p17ulv4831) Units=km Length=0.0448691 bus1=p17udm5217.1.2 bus2=p17ulv4831.1.2 switch=n enabled=y phases=2 Linecode=1P_OH_AL_4/0_Zuzara_2

New Line.l(r:p17udm5217-p17udm5218) Units=km Length=0.0186212 bus1=p17udm5218.1.2 bus2=p17udm5217.1.2 switch=n enabled=y phases=2 Linecode=1P_OH_AL_2/0_Rucina_2

New Line.l(r:p17udm5218-p17udt1229lv) Units=km Length=0.0186211 bus1=p17udt1229lv.1.2 bus2=p17udm5218.1.2 switch=n enabled=y phases=2 Linecode=1P_OH_AL_2/0_Rucina_2

New Line.l(r:p17udm5221-p17ulv5120) Units=km Length=0.0118605 bus1=p17udm5221.1.2 bus2=p17ulv5120.1.2 switch=n enabled=y phases=2 Linecode=1P_OH_AL_2/0_Rucina_2

New Line.l(r:p17udm5221-p17udt1229lv) Units=km Length=0.03725230000000001 bus1=p17udt1229lv.1.2 bus2=p17udm5221.1.2 switch=n enabled=y phases=2 Linecode=1P_OH_AL_4/0_Zuzara_2

New Line.l(r:p17udt1258lv-p17ulv4770) Units=km Length=0.0362829 bus1=p17udt1258lv.1.2 bus2=p17ulv4770.1.2 switch=n enabled=y phases=2 Linecode=1P_OH_AL_4/0_Zuzara_2

New Line.l(r:p17udt1261lv-p17ulv4783) Units=km Length=0.001 bus1=p17udt1261lv.1.2 bus2=p17ulv4783.1.2 switch=n enabled=y phases=2 Linecode=1P_OH_AL_4_Periwinkle_2

New Line.l(r:p17udt1267lv-p17ulv4814) Units=km Length=0.057844 bus1=p17udt1267lv.1.2 bus2=p17ulv4814.1.2 switch=n enabled=y phases=2 Linecode=1P_OH_AL_4/0_Zuzara_2

New Line.l(r:p17udt1267lv-p17ulv4822) Units=km Length=0.0280169 bus1=p17udt1267lv.1.2 bus2=p17ulv4822.1.2 switch=n enabled=y phases=2 Linecode=1P_OH_AL_4/0_Zuzara_2

New Line.l(r:p17udt1277lv-p17ulv4868) Units=km Length=0.0730865 bus1=p17udt1277lv.1.2 bus2=p17ulv4868.1.2 switch=n enabled=y phases=2 Linecode=1P_OH_AL_4/0_Zuzara_2

New Line.l(r:p17udm5364-p17ulv4876) Units=km Length=0.105282 bus1=p17udm5364.1.2 bus2=p17ulv4876.1.2 switch=n enabled=y phases=2 Linecode=1P_OH_AL_4/0_Zuzara_2

New Line.l(r:p17udm5364-p17udt1277lv) Units=km Length=0.019263 bus1=p17udt1277lv.1.2 bus2=p17udm5364.1.2 switch=n enabled=y phases=2 Linecode=1P_OH_AL_2/0_Rucina_2

New Line.l(r:p17udt1286lv-p17ulv4900) Units=km Length=0.0662702 bus1=p17udt1286lv.1.2 bus2=p17ulv4900.1.2 switch=n enabled=y phases=2 Linecode=1P_OH_AL_4/0_Zuzara_2

New Line.l(r:p17udt1307lv-p17ulv4973) Units=km Length=0.0727019 bus1=p17udt1307lv.1.2 bus2=p17ulv4973.1.2 switch=n enabled=y phases=2 Linecode=1P_OH_AL_4/0_Zuzara_2

New Line.l(r:p17udt1307lv-p17ulv4991) Units=km Length=0.022251000000000003 bus1=p17udt1307lv.1.2 bus2=p17ulv4991.1.2 switch=n enabled=y phases=2 Linecode=1P_OH_AL_2/0_Rucina_2

New Line.l(r:p17udt1307lv-p17ulv5210) Units=km Length=0.0417007 bus1=p17udt1307lv.1.2 bus2=p17ulv5210.1.2 switch=n enabled=y phases=2 Linecode=1P_OH_AL_4/0_Zuzara_2

New Line.l(r:p17udt1307lv-p17ulv5211) Units=km Length=0.0361657 bus1=p17udt1307lv.1.2 bus2=p17ulv5211.1.2 switch=n enabled=y phases=2 Linecode=1P_OH_AL_4/0_Zuzara_2

New Line.l(r:p17udm5496-p17ulv5068) Units=km Length=0.0171234 bus1=p17udm5496.1.2 bus2=p17ulv5068.1.2 switch=n enabled=y phases=2 Linecode=1P_OH_AL_2/0_Rucina_2

New Line.l(r:p17udm5496-p17udt1307lv) Units=km Length=0.0558734 bus1=p17udt1307lv.1.2 bus2=p17udm5496.1.2 switch=n enabled=y phases=2 Linecode=1P_OH_AL_4/0_Zuzara_2

New Line.l(r:p17udt1387lv-p17ulv5436) Units=km Length=0.0166727 bus1=p17udt1387lv.1.2 bus2=p17ulv5436.1.2 switch=n enabled=y phases=2 Linecode=1P_OH_AL_2/0_Rucina_2

New Line.l(r:p17udt1387lv-p17ulv5684) Units=km Length=0.0171367 bus1=p17udt1387lv.1.2 bus2=p17ulv5684.1.2 switch=n enabled=y phases=2 Linecode=1P_OH_AL_2/0_Rucina_2

New Line.l(r:p17udt1387lv-p17ulv5743) Units=km Length=0.014291500000000002 bus1=p17udt1387lv.1.2 bus2=p17ulv5743.1.2 switch=n enabled=y phases=2 Linecode=1P_OH_AL_2/0_Rucina_2

New Line.l(r:p17udm5812-p17ulv5332) Units=km Length=0.015293200000000002 bus1=p17udm5812.1.2 bus2=p17ulv5332.1.2 switch=n enabled=y phases=2 Linecode=1P_OH_AL_2/0_Rucina_2

New Line.l(r:p17udm5812-p17ulv5754) Units=km Length=0.0137208 bus1=p17udm5812.1.2 bus2=p17ulv5754.1.2 switch=n enabled=y phases=2 Linecode=1P_OH_AL_2/0_Rucina_2

New Line.l(r:p17udm5812-p17udt1387lv) Units=km Length=0.0191512 bus1=p17udt1387lv.1.2 bus2=p17udm5812.1.2 switch=n enabled=y phases=2 Linecode=1P_OH_AL_2/0_Rucina_2

New Line.l(r:p17udm5813-p17ulv5431) Units=km Length=0.0139293 bus1=p17udm5813.1.2 bus2=p17ulv5431.1.2 switch=n enabled=y phases=2 Linecode=1P_OH_AL_2/0_Rucina_2

New Line.l(r:p17udm5813-p17ulv5746) Units=km Length=0.014353600000000001 bus1=p17udm5813.1.2 bus2=p17ulv5746.1.2 switch=n enabled=y phases=2 Linecode=1P_OH_AL_2/0_Rucina_2

New Line.l(r:p17udm5813-p17udt1387lv) Units=km Length=0.0383022 bus1=p17udt1387lv.1.2 bus2=p17udm5813.1.2 switch=n enabled=y phases=2 Linecode=1P_OH_AL_4/0_Zuzara_2

New Line.l(r:p17udt1389lv-p17ulv5334) Units=km Length=0.0219538 bus1=p17udt1389lv.1.2 bus2=p17ulv5334.1.2 switch=n enabled=y phases=2 Linecode=1P_OH_AL_2/0_Rucina_2

New Line.l(r:p17udm5825-p17ulv5392) Units=km Length=0.0149641 bus1=p17udm5825.1.2 bus2=p17ulv5392.1.2 switch=n enabled=y phases=2 Linecode=1P_OH_AL_2/0_Rucina_2

New Line.l(r:p17udm5826-p17ulv5560) Units=km Length=0.0164691 bus1=p17udm5826.1.2 bus2=p17ulv5560.1.2 switch=n enabled=y phases=2 Linecode=1P_OH_AL_2/0_Rucina_2

New Line.l(r:p17udm5826-p17ulv5717) Units=km Length=0.0133225 bus1=p17udm5826.1.2 bus2=p17ulv5717.1.2 switch=n enabled=y phases=2 Linecode=1P_OH_AL_2/0_Rucina_2_2

New Line.l(r:p17udm5825-p17udm5826) Units=km Length=0.0191512 bus1=p17udm5825.1.2 bus2=p17udm5826.1.2 switch=n enabled=y phases=2 Linecode=1P_OH_AL_2/0_Rucina_2_3

New Line.l(r:p17udm5825-p17udt1389lv) Units=km Length=0.011935900000000001 bus1=p17udt1389lv.1.2 bus2=p17udm5825.1.2 switch=n enabled=y phases=2 Linecode=1P_OH_AL_2/0_Rucina_2_3

New Line.l(r:p17udm5827-p17ulv5657) Units=km Length=0.0156877 bus1=p17udm5827.1.2 bus2=p17ulv5657.1.2 switch=n enabled=y phases=2 Linecode=1P_OH_AL_2/0_Rucina_2

New Line.l(r:p17udm5828-p17ulv5668) Units=km Length=0.0110131 bus1=p17udm5828.1.2 bus2=p17ulv5668.1.2 switch=n enabled=y phases=2 Linecode=1P_OH_AL_2/0_Rucina_2

New Line.l(r:p17udm5828-p17ulv5686) Units=km Length=0.0156306 bus1=p17udm5828.1.2 bus2=p17ulv5686.1.2 switch=n enabled=y phases=2 Linecode=1P_OH_AL_2/0_Rucina_2

New Line.l(r:p17udm5827-p17udm5828) Units=km Length=0.00775418 bus1=p17udm5827.1.2 bus2=p17udm5828.1.2 switch=n enabled=y phases=2 Linecode=1P_OH_AL_2/0_Rucina_2

New Line.l(r:p17udm5827-p17udt1389lv) Units=km Length=0.00736495 bus1=p17udt1389lv.1.2 bus2=p17udm5827.1.2 switch=n enabled=y phases=2 Linecode=1P_OH_AL_2/0_Rucina_2

New Line.l(r:p17udt1403lv-p17ulv5355) Units=km Length=0.0144163 bus1=p17udt1403lv.1.2 bus2=p17ulv5355.1.2 switch=n enabled=y phases=2 Linecode=1P_OH_AL_2/0_Rucina_2

New Line.l(r:p17udt1403lv-p17ulv5405) Units=km Length=0.0141391 bus1=p17udt1403lv.1.2 bus2=p17ulv5405.1.2 switch=n enabled=y phases=2 Linecode=1P_OH_AL_2/0_Rucina_2

New Line.l(r:p17udt1403lv-p17ulv5784) Units=km Length=0.0172005 bus1=p17udt1403lv.1.2 bus2=p17ulv5784.1.2 switch=n enabled=y phases=2 Linecode=1P_OH_AL_2/0_Rucina_2

New Line.l(r:p17udm5896-p17ulv5511) Units=km Length=0.0159701 bus1=p17udm5896.1.2 bus2=p17ulv5511.1.2 switch=n enabled=y phases=2 Linecode=1P_OH_AL_2/0_Rucina_2

New Line.l(r:p17udm5896-p17ulv5728) Units=km Length=0.015289 bus1=p17udm5896.1.2 bus2=p17ulv5728.1.2 switch=n enabled=y phases=2 Linecode=1P_OH_AL_2/0_Rucina_2

New Line.l(r:p17udm5896-p17udt1403lv) Units=km Length=0.019151 bus1=p17udt1403lv.1.2 bus2=p17udm5896.1.2 switch=n enabled=y phases=2 Linecode=1P_OH_AL_2/0_Rucina_2

New Line.l(r:p17udt1431lv-p17ulv5454) Units=km Length=0.0140261 bus1=p17udt1431lv.1.2 bus2=p17ulv5454.1.2 switch=n enabled=y phases=2 Linecode=1P_OH_AL_2/0_Rucina_2

New Line.l(r:p17udm6026-p17ulv5598) Units=km Length=0.0115103 bus1=p17udm6026.1.2 bus2=p17ulv5598.1.2 switch=n enabled=y phases=2 Linecode=1P_OH_AL_2/0_Rucina_2

New Line.l(r:p17udm6026-p17udt1431lv) Units=km Length=0.008212340000000002 bus1=p17udt1431lv.1.2 bus2=p17udm6026.1.2 switch=n enabled=y phases=2 Linecode=1P_OH_AL_2/0_Rucina_2

New Line.l(r:p17udt1460lv-p17ulv5601) Units=km Length=0.0159204 bus1=p17udt1460lv.1.2 bus2=p17ulv5601.1.2 switch=n enabled=y phases=2 Linecode=1P_OH_AL_2/0_Rucina_2

New Line.l(r:p17udt1468lv-p17ulv5704) Units=km Length=0.0150145 bus1=p17udt1468lv.1.2 bus2=p17ulv5704.1.2 switch=n enabled=y phases=2 Linecode=1P_OH_AL_2/0_Rucina_2

New Line.l(r:p17udt1468lv-p17ulv39503) Units=km Length=0.0135632 bus1=p17udt1468lv.1.2 bus2=p17ulv39503.1.2 switch=n enabled=y phases=2 Linecode=1P_OH_AL_2/0_Rucina_2

New Line.l(r:p17udm6175-p17ulv5613) Units=km Length=0.014498000000000002 bus1=p17udm6175.1.2 bus2=p17ulv5613.1.2 switch=n enabled=y phases=2 Linecode=1P_OH_AL_2/0_Rucina_2

New Line.l(r:p17udm6175-p17udt1468lv) Units=km Length=0.0166324 bus1=p17udt1468lv.1.2 bus2=p17udm6175.1.2 switch=n enabled=y phases=2 Linecode=1P_OH_AL_2/0_Rucina_2

New Line.l(r:p17udt1469lv-p17ulv5614) Units=km Length=0.0106601 bus1=p17udt1469lv.1.2 bus2=p17ulv5614.1.2 switch=n enabled=y phases=2 Linecode=1P_OH_AL_2/0_Rucina_2

New Line.l(r:p17udm6179-p17ulv5644) Units=km Length=0.00971463 bus1=p17udm6179.1.2 bus2=p17ulv5644.1.2 switch=n enabled=y phases=2 Linecode=1P_OH_AL_2/0_Rucina_2

New Line.l(r:p17udm6179-p17udt1469lv) Units=km Length=0.015331 bus1=p17udt1469lv.1.2 bus2=p17udm6179.1.2 switch=n enabled=y phases=2 Linecode=1P_OH_AL_2/0_Rucina_2

New Line.l(r:p17udm6185-p17ulv5625) Units=km Length=0.017297 bus1=p17udm6185.1.2 bus2=p17ulv5625.1.2 switch=n enabled=y phases=2 Linecode=1P_OH_AL_2/0_Rucina_2

New Line.l(r:p17udm6188-p17ulv39526) Units=km Length=0.010450200000000002 bus1=p17udm6188.1.2 bus2=p17ulv39526.1.2 switch=n enabled=y phases=2 Linecode=1P_OH_AL_2/0_Rucina_2

New Line.l(r:p17udm6185-p17udm6188) Units=km Length=0.011231600000000001 bus1=p17udm6185.1.2 bus2=p17udm6188.1.2 switch=n enabled=y phases=2 Linecode=1P_OH_AL_2/0_Rucina_2

New Line.l(r:p17udm6190-p17ulv39736) Units=km Length=0.0127967 bus1=p17udm6190.1.2 bus2=p17ulv39736.1.2 switch=n enabled=y phases=2 Linecode=1P_OH_AL_2/0_Rucina_2

New Line.l(r:p17udm6189-p17ulv39701) Units=km Length=0.0144547 bus1=p17udm6189.1.2 bus2=p17ulv39701.1.2 switch=n enabled=y phases=2 Linecode=1P_OH_AL_2/0_Rucina_2

New Line.l(r:p17udm6189-p17udm6190) Units=km Length=0.0339558 bus1=p17udm6190.1.2 bus2=p17udm6189.1.2 switch=n enabled=y phases=2 Linecode=1P_OH_AL_4/0_Zuzara_2

New Line.l(r:p17udm6185-p17udm6190) Units=km Length=0.016973 bus1=p17udm6185.1.2 bus2=p17udm6190.1.2 switch=n enabled=y phases=2 Linecode=1P_OH_AL_2/0_Rucina_2

New Line.l(r:p17udm6185-p17udt1472lv) Units=km Length=0.017112500000000003 bus1=p17udt1472lv.1.2 bus2=p17udm6185.1.2 switch=n enabled=y phases=2 Linecode=1P_OH_AL_2/0_Rucina_2

New Line.l(r:p17udm6186-p17ulv5708) Units=km Length=0.013932100000000001 bus1=p17udm6186.1.2 bus2=p17ulv5708.1.2 switch=n enabled=y phases=2 Linecode=1P_OH_AL_2/0_Rucina_2

New Line.l(r:p17udm6186-p17ulv39515) Units=km Length=0.0146094 bus1=p17udm6186.1.2 bus2=p17ulv39515.1.2 switch=n enabled=y phases=2 Linecode=1P_OH_AL_2/0_Rucina_2

New Line.l(r:p17udm6186-p17udt1472lv) Units=km Length=0.0171025 bus1=p17udt1472lv.1.2 bus2=p17udm6186.1.2 switch=n enabled=y phases=2 Linecode=1P_OH_AL_2/0_Rucina_2

New Line.l(r:p17udm6256-p17ulv5692) Units=km Length=0.0102608 bus1=p17udm6256.1.2 bus2=p17ulv5692.1.2 switch=n enabled=y phases=2 Linecode=1P_OH_AL_2/0_Rucina_2

New Line.l(r:p17udm6257-p17ulv5767) Units=km Length=0.0135886 bus1=p17udm6257.1.2 bus2=p17ulv5767.1.2 switch=n enabled=y phases=2 Linecode=1P_OH_AL_2/0_Rucina_2

New Line.l(r:p17udm6257-p17ulv39771) Units=km Length=0.013330600000000001 bus1=p17udm6257.1.2 bus2=p17ulv39771.1.2 switch=n enabled=y phases=2 Linecode=1P_OH_AL_2/0_Rucina_2

New Line.l(r:p17udm6256-p17udm6257) Units=km Length=0.0479847 bus1=p17udm6256.1.2 bus2=p17udm6257.1.2 switch=n enabled=y phases=2 Linecode=1P_OH_AL_4/0_Zuzara_2

New Line.l(r:p17udm6256-p17udt1492lv) Units=km Length=0.0317305 bus1=p17udt1492lv.1.2 bus2=p17udm6256.1.2 switch=n enabled=y phases=2 Linecode=1P_OH_AL_4/0_Zuzara_2

New Line.l(r:p17udm6258-p17ulv6358) Units=km Length=0.0149212 bus1=p17udm6258.1.2 bus2=p17ulv6358.1.2 switch=n enabled=y phases=2 Linecode=1P_OH_AL_2/0_Rucina_2

New Line.l(r:p17udm6258-p17ulv6366) Units=km Length=0.0124169 bus1=p17udm6258.1.2 bus2=p17ulv6366.1.2 switch=n enabled=y phases=2 Linecode=1P_OH_AL_2/0_Rucina_2

New Line.l(r:p17udm6258-p17ulv6492) Units=km Length=0.0156323 bus1=p17udm6258.1.2 bus2=p17ulv6492.1.2 switch=n enabled=y phases=2 Linecode=1P_OH_AL_2/0_Rucina_2

New Line.l(r:p17udm6258-p17udt1492lv) Units=km Length=0.0322749 bus1=p17udt1492lv.1.2 bus2=p17udm6258.1.2 switch=n enabled=y phases=2 Linecode=1P_OH_AL_4/0_Zuzara_2

New Line.l(r:p17udm6293-p17ulv5726) Units=km Length=0.0112699 bus1=p17udm6293.1.2 bus2=p17ulv5726.1.2 switch=n enabled=y phases=2 Linecode=1P_OH_AL_2/0_Rucina_2

New Line.l(r:p17udm6293-p17udt1503lv) Units=km Length=0.0342499 bus1=p17udt1503lv.1.2 bus2=p17udm6293.1.2 switch=n enabled=y phases=2 Linecode=1P_OH_AL_4/0_Zuzara_2

New Line.l(r:p17udm6294-p17ulv39773) Units=km Length=0.015222600000000001 bus1=p17udm6294.1.2 bus2=p17ulv39773.1.2 switch=n enabled=y phases=2 Linecode=1P_OH_AL_2/0_Rucina_2

New Line.l(r:p17udm6294-p17udt1503lv) Units=km Length=0.058176000000000005 bus1=p17udt1503lv.1.2 bus2=p17udm6294.1.2 switch=n enabled=y phases=2 Linecode=1P_OH_AL_4/0_Zuzara_2

New Line.l(r:p17udt1509lv-p17ulv39451) Units=km Length=0.0102067 bus1=p17udt1509lv.1.2 bus2=p17ulv39451.1.2 switch=n enabled=y phases=2 Linecode=1P_OH_AL_2/0_Rucina_2

New Line.l(r:p17udm6315-p17ulv39536) Units=km Length=0.0157721 bus1=p17udm6315.1.2 bus2=p17ulv39536.1.2 switch=n enabled=y phases=2 Linecode=1P_OH_AL_2/0_Rucina_2

New Line.l(r:p17udm6315-p17ulv39578) Units=km Length=0.0142602 bus1=p17udm6315.1.2 bus2=p17ulv39578.1.2 switch=n enabled=y phases=2 Linecode=1P_OH_AL_2/0_Rucina_2

New Line.l(r:p17udm6315-p17udt1509lv) Units=km Length=0.0173428 bus1=p17udt1509lv.1.2 bus2=p17udm6315.1.2 switch=n enabled=y phases=2 Linecode=1P_OH_AL_2/0_Rucina_2

New Line.l(r:p17udm6317-p17ulv39858) Units=km Length=0.0117561 bus1=p17udm6317.1.2 bus2=p17ulv39858.1.2 switch=n enabled=y phases=2 Linecode=1P_OH_AL_2/0_Rucina_2

New Line.l(r:p17udm6313-p17ulv5750) Units=km Length=0.013872900000000002 bus1=p17udm6313.1.2 bus2=p17ulv5750.1.2 switch=n enabled=y phases=2 Linecode=1P_OH_AL_2/0_Rucina_2

New Line.l(r:p17udm6313-p17udm6317) Units=km Length=0.0173428 bus1=p17udm6317.1.2 bus2=p17udm6313.1.2 switch=n enabled=y phases=2 Linecode=1P_OH_AL_2/0_Rucina_2

New Line.l(r:p17udm6317-p17udt1509lv) Units=km Length=0.0173328 bus1=p17udt1509lv.1.2 bus2=p17udm6317.1.2 switch=n enabled=y phases=2 Linecode=1P_OH_AL_2/0_Rucina_2

New Line.l(r:p17udt1514lv-p17ulv5773) Units=km Length=0.0135206 bus1=p17udt1514lv.1.2 bus2=p17ulv5773.1.2 switch=n enabled=y phases=2 Linecode=1P_OH_AL_2/0_Rucina_2

New Line.l(r:p17udm6331-p17ulv6477) Units=km Length=0.0156213 bus1=p17udm6331.1.2 bus2=p17ulv6477.1.2 switch=n enabled=y phases=2 Linecode=1P_OH_AL_2/0_Rucina_2

New Line.l(r:p17udm6331-p17udt1514lv) Units=km Length=0.0257068 bus1=p17udt1514lv.1.2 bus2=p17udm6331.1.2 switch=n enabled=y phases=2 Linecode=1P_OH_AL_2/0_Rucina_2

New Line.l(r:p17udt1633lv-p17ulv6276) Units=km Length=0.0668256 bus1=p17udt1633lv.1.2 bus2=p17ulv6276.1.2 switch=n enabled=y phases=2 Linecode=1P_OH_AL_4/0_Zuzara_2

New Line.l(r:p17udt1633lv-p17ulv6359) Units=km Length=0.0439202 bus1=p17udt1633lv.1.2 bus2=p17ulv6359.1.2 switch=n enabled=y phases=2 Linecode=1P_OH_AL_4/0_Zuzara_2

New Line.l(r:p17udt1633lv-p17ulv6442) Units=km Length=0.026214 bus1=p17udt1633lv.1.2 bus2=p17ulv6442.1.2 switch=n enabled=y phases=2 Linecode=1P_OH_AL_2/0_Rucina_2

New Line.l(r:p17udt1633lv-p17ulv6456) Units=km Length=0.0480107 bus1=p17udt1633lv.1.2 bus2=p17ulv6456.1.2 switch=n enabled=y phases=2 Linecode=1P_OH_AL_4/0_Zuzara_2

New Line.l(r:p17udt1633lv-p17ulv6467) Units=km Length=0.05544990000000001 bus1=p17udt1633lv.1.2 bus2=p17ulv6467.1.2 switch=n enabled=y phases=2 Linecode=1P_OH_AL_4/0_Zuzara_2

New Line.l(r:p17udt1633lv-p17ulv6524) Units=km Length=0.025712100000000005 bus1=p17udt1633lv.1.2 bus2=p17ulv6524.1.2 switch=n enabled=y phases=2 Linecode=1P_OH_AL_2/0_Rucina_2

New Line.l(r:p17udt1645lv-p17ulv6412) Units=km Length=0.0162781 bus1=p17udt1645lv.1.2 bus2=p17ulv6412.1.2 switch=n enabled=y phases=2 Linecode=1P_OH_AL_2/0_Rucina_2

New Line.l(r:p17udm6976-p17ulv6289) Units=km Length=0.0139634 bus1=p17udm6976.1.2 bus2=p17ulv6289.1.2 switch=n enabled=y phases=2 Linecode=1P_OH_AL_2/0_Rucina_2

New Line.l(r:p17udm6976-p17ulv6410) Units=km Length=0.0191434 bus1=p17udm6976.1.2 bus2=p17ulv6410.1.2 switch=n enabled=y phases=2 Linecode=1P_OH_AL_2/0_Rucina_2

New Line.l(r:p17udm6976-p17ulv6511) Units=km Length=0.0121115 bus1=p17udm6976.1.2 bus2=p17ulv6511.1.2 switch=n enabled=y phases=2 Linecode=1P_OH_AL_2/0_Rucina_2

New Line.l(r:p17udm6976-p17udt1645lv) Units=km Length=0.0166801 bus1=p17udt1645lv.1.2 bus2=p17udm6976.1.2 switch=n enabled=y phases=2 Linecode=1P_OH_AL_2/0_Rucina_2

New Line.l(r:p17udm6977-p17ulv6350) Units=km Length=0.0176469 bus1=p17udm6977.1.2 bus2=p17ulv6350.1.2 switch=n enabled=y phases=2 Linecode=1P_OH_AL_2/0_Rucina_2

New Line.l(r:p17udm6977-p17udt1645lv) Units=km Length=0.016690100000000003 bus1=p17udt1645lv.1.2 bus2=p17udm6977.1.2 switch=n enabled=y phases=2 Linecode=1P_OH_AL_2/0_Rucina_2

New Line.l(r:p17udt1648lv-p17ulv6295) Units=km Length=0.0255943 bus1=p17udt1648lv.1.2 bus2=p17ulv6295.1.2 switch=n enabled=y phases=2 Linecode=1P_OH_AL_2/0_Rucina_2

New Line.l(r:p17udt1648lv-p17ulv6465) Units=km Length=0.0670158 bus1=p17udt1648lv.1.2 bus2=p17ulv6465.1.2 switch=n enabled=y phases=2 Linecode=1P_OH_AL_4/0_Zuzara_2

New Line.l(r:p17udt1648lv-p17ulv6531) Units=km Length=0.017804900000000002 bus1=p17udt1648lv.1.2 bus2=p17ulv6531.1.2 switch=n enabled=y phases=2 Linecode=1P_OH_AL_2/0_Rucina_2

New Line.l(r:p17udt1653lv-p17ulv6321) Units=km Length=0.00500568 bus1=p17udt1653lv.1.2 bus2=p17ulv6321.1.2 switch=n enabled=y phases=2 Linecode=1P_OH_AL_2/0_Rucina_2

New Line.l(r:p17udt1653lv-p17ulv54718) Units=km Length=0.0224571 bus1=p17udt1653lv.1.2 bus2=p17ulv54718.1.2 switch=n enabled=y phases=2 Linecode=1P_OH_AL_2/0_Rucina_2

New Line.l(r:p17udm7012-p17ulv6306) Units=km Length=0.0369411 bus1=p17udm7012.1.2 bus2=p17ulv6306.1.2 switch=n enabled=y phases=2 Linecode=1P_OH_AL_4/0_Zuzara_2

New Line.l(r:p17udm7012-p17ulv6334) Units=km Length=0.0603217 bus1=p17udm7012.1.2 bus2=p17ulv6334.1.2 switch=n enabled=y phases=2 Linecode=1P_OH_AL_4/0_Zuzara_2

New Line.l(r:p17udm7012-p17ulv6415) Units=km Length=0.0021472100000000005 bus1=p17udm7012.1.2 bus2=p17ulv6415.1.2 switch=n enabled=y phases=2 Linecode=1P_OH_AL_4_Periwinkle_2

New Line.l(r:p17udm7012-p17ulv6544) Units=km Length=0.028034600000000003 bus1=p17udm7012.1.2 bus2=p17ulv6544.1.2 switch=n enabled=y phases=2 Linecode=1P_OH_AL_4/0_Zuzara_2

New Line.l(r:p17udm7012-p17udt1653lv) Units=km Length=0.0192802 bus1=p17udt1653lv.1.2 bus2=p17udm7012.1.2 switch=n enabled=y phases=2 Linecode=1P_OH_AL_2/0_Rucina_2

New Line.l(r:p17udm7016-p17ulv6484) Units=km Length=0.0184212 bus1=p17udm7016.1.2 bus2=p17ulv6484.1.2 switch=n enabled=y phases=2 Linecode=1P_OH_AL_2/0_Rucina_2

New Line.l(r:p17udm7016-p17udt1653lv) Units=km Length=0.0385603 bus1=p17udt1653lv.1.2 bus2=p17udm7016.1.2 switch=n enabled=y phases=2 Linecode=1P_OH_AL_4/0_Zuzara_2

New Line.l(r:p17udt1654lv-p17ulv6488) Units=km Length=0.0123241 bus1=p17udt1654lv.1.2 bus2=p17ulv6488.1.2 switch=n enabled=y phases=2 Linecode=1P_OH_AL_2/0_Rucina_2

New Line.l(r:p17udm7019-p17ulv6308) Units=km Length=0.0137184 bus1=p17udm7019.1.2 bus2=p17ulv6308.1.2 switch=n enabled=y phases=2 Linecode=1P_OH_AL_2/0_Rucina_2

New Line.l(r:p17udm7019-p17udt1654lv) Units=km Length=0.0355522 bus1=p17udt1654lv.1.2 bus2=p17udm7019.1.2 switch=n enabled=y phases=2 Linecode=1P_OH_AL_4/0_Zuzara_2

New Line.l(r:p17udm7020-p17ulv6375) Units=km Length=0.0159724 bus1=p17udm7020.1.2 bus2=p17ulv6375.1.2 switch=n enabled=y phases=2 Linecode=1P_OH_AL_2/0_Rucina_2

New Line.l(r:p17udm7020-p17udt1654lv) Units=km Length=0.0388295 bus1=p17udt1654lv.1.2 bus2=p17udm7020.1.2 switch=n enabled=y phases=2 Linecode=1P_OH_AL_4/0_Zuzara_2

New Line.l(r:p17udt1667lv-p17ulv6335) Units=km Length=0.0288326 bus1=p17udt1667lv.1.2 bus2=p17ulv6335.1.2 switch=n enabled=y phases=2 Linecode=1P_OH_AL_4/0_Zuzara_2

New Line.l(r:p17udt1667lv-p17ulv6348) Units=km Length=0.0559951 bus1=p17udt1667lv.1.2 bus2=p17ulv6348.1.2 switch=n enabled=y phases=2 Linecode=1P_OH_AL_4/0_Zuzara_2

New Line.l(r:p17udm7074-p17ulv6455) Units=km Length=0.059734 bus1=p17udm7074.1.2 bus2=p17ulv6455.1.2 switch=n enabled=y phases=2 Linecode=1P_OH_AL_4/0_Zuzara_2

New Line.l(r:p17udm7074-p17udt1667lv) Units=km Length=0.0188404 bus1=p17udt1667lv.1.2 bus2=p17udm7074.1.2 switch=n enabled=y phases=2 Linecode=1P_OH_AL_2/0_Rucina_2

New Line.l(r:p17udt1670lv-p17ulv6349) Units=km Length=0.0103131 bus1=p17udt1670lv.1.2 bus2=p17ulv6349.1.2 switch=n enabled=y phases=2 Linecode=1P_OH_AL_2/0_Rucina_2

New Line.l(r:p17udt1670lv-p17ulv6409) Units=km Length=0.0427938 bus1=p17udt1670lv.1.2 bus2=p17ulv6409.1.2 switch=n enabled=y phases=2 Linecode=1P_OH_AL_4/0_Zuzara_2

New Line.l(r:p17udm7086-p17ulv6360) Units=km Length=0.0123398 bus1=p17udm7086.1.2 bus2=p17ulv6360.1.2 switch=n enabled=y phases=2 Linecode=1P_OH_AL_2/0_Rucina_2

New Line.l(r:p17udm7086-p17udt1670lv) Units=km Length=0.0195312 bus1=p17udt1670lv.1.2 bus2=p17udm7086.1.2 switch=n enabled=y phases=2 Linecode=1P_OH_AL_2/0_Rucina_2

New Line.l(r:p17udm7088-p17ulv6476) Units=km Length=0.0410122 bus1=p17udm7088.1.2 bus2=p17ulv6476.1.2 switch=n enabled=y phases=2 Linecode=1P_OH_AL_4/0_Zuzara_2

New Line.l(r:p17udm7088-p17udt1670lv) Units=km Length=0.0195312 bus1=p17udt1670lv.1.2 bus2=p17udm7088.1.2 switch=n enabled=y phases=2 Linecode=1P_OH_AL_2/0_Rucina_2

New Line.l(r:p17udt1672lv-p17ulv6419) Units=km Length=0.115607 bus1=p17udt1672lv.1.2 bus2=p17ulv6419.1.2 switch=n enabled=y phases=2 Linecode=1P_OH_AL_4/0_Zuzara_2

New Line.l(r:p17udm7092-p17ulv6354) Units=km Length=0.0537503 bus1=p17udm7092.1.2 bus2=p17ulv6354.1.2 switch=n enabled=y phases=2 Linecode=1P_OH_AL_4/0_Zuzara_2

New Line.l(r:p17udm7092-p17udt1672lv) Units=km Length=0.0192802 bus1=p17udt1672lv.1.2 bus2=p17udm7092.1.2 switch=n enabled=y phases=2 Linecode=1P_OH_AL_2/0_Rucina_2

New Line.l(r:p17udt1675lv-p17ulv6491) Units=km Length=0.014575 bus1=p17udt1675lv.1.2 bus2=p17ulv6491.1.2 switch=n enabled=y phases=2 Linecode=1P_OH_AL_2/0_Rucina_2

New Line.l(r:p17udt1675lv-p17ulv6504) Units=km Length=0.0102014 bus1=p17udt1675lv.1.2 bus2=p17ulv6504.1.2 switch=n enabled=y phases=2 Linecode=1P_OH_AL_2/0_Rucina_2

New Line.l(r:p17udm7098-p17ulv6362) Units=km Length=0.0166481 bus1=p17udm7098.1.2 bus2=p17ulv6362.1.2 switch=n enabled=y phases=2 Linecode=1P_OH_AL_2/0_Rucina_2

New Line.l(r:p17udm7098-p17udt1675lv) Units=km Length=0.0760725 bus1=p17udt1675lv.1.2 bus2=p17udm7098.1.2 switch=n enabled=y phases=2 Linecode=1P_OH_AL_4/0_Zuzara_2

New Line.l(r:p17udt1677lv-p17ulv6369) Units=km Length=0.0452026 bus1=p17udt1677lv.1.2 bus2=p17ulv6369.1.2 switch=n enabled=y phases=2 Linecode=1P_OH_AL_4/0_Zuzara_2

New Line.l(r:p17udm7108-p17ulv6443) Units=km Length=0.026721900000000003 bus1=p17udm7108.1.2 bus2=p17ulv6443.1.2 switch=n enabled=y phases=2 Linecode=1P_OH_AL_2/0_Rucina_2

New Line.l(r:p17udm7108-p17ulv6500) Units=km Length=0.0561502 bus1=p17udm7108.1.2 bus2=p17ulv6500.1.2 switch=n enabled=y phases=2 Linecode=1P_OH_AL_4/0_Zuzara_2

New Line.l(r:p17udm7108-p17udt1677lv) Units=km Length=0.0188504 bus1=p17udt1677lv.1.2 bus2=p17udm7108.1.2 switch=n enabled=y phases=2 Linecode=1P_OH_AL_2/0_Rucina_2

New Line.l(r:p17udm7110-p17ulv6543) Units=km Length=0.0218717 bus1=p17udm7110.1.2 bus2=p17ulv6543.1.2 switch=n enabled=y phases=2 Linecode=1P_OH_AL_2/0_Rucina_2

New Line.l(r:p17udm7110-p17udt1677lv) Units=km Length=0.0188504 bus1=p17udt1677lv.1.2 bus2=p17udm7110.1.2 switch=n enabled=y phases=2 Linecode=1P_OH_AL_2/0_Rucina_2

New Line.l(r:p17udm7123-p17ulv6384) Units=km Length=0.0132641 bus1=p17udm7123.1.2 bus2=p17ulv6384.1.2 switch=n enabled=y phases=2 Linecode=1P_OH_AL_2/0_Rucina_2

New Line.l(r:p17udm7123-p17udt1680lv) Units=km Length=0.0194148 bus1=p17udt1680lv.1.2 bus2=p17udm7123.1.2 switch=n enabled=y phases=2 Linecode=1P_OH_AL_2/0_Rucina_2

New Line.l(r:p17udm7124-p17ulv6417) Units=km Length=0.0167726 bus1=p17udm7124.1.2 bus2=p17ulv6417.1.2 switch=n enabled=y phases=2 Linecode=1P_OH_AL_2/0_Rucina_2

New Line.l(r:p17udm7124-p17udt1680lv) Units=km Length=0.05155880000000001 bus1=p17udt1680lv.1.2 bus2=p17udm7124.1.2 switch=n enabled=y phases=2 Linecode=1P_OH_AL_4/0_Zuzara_2

New Line.l(r:p17udt1687lv-p17ulv6422) Units=km Length=0.0886955 bus1=p17udt1687lv.1.2 bus2=p17ulv6422.1.2 switch=n enabled=y phases=2 Linecode=1P_OH_AL_4/0_Zuzara_2

New Line.l(r:p17udt5464lv-p17ulv20649) Units=km Length=0.0121346 bus1=p17udt5464lv.1.2 bus2=p17ulv20649.1.2 switch=n enabled=y phases=2 Linecode=1P_OH_AL_2/0_Rucina_2

New Line.l(r:p17udt5464lv-p17ulv39665) Units=km Length=0.0131661 bus1=p17udt5464lv.1.2 bus2=p17ulv39665.1.2 switch=n enabled=y phases=2 Linecode=1P_OH_AL_2/0_Rucina_2

New Line.l(r:p17udm21236-p17ulv20179) Units=km Length=0.0675102 bus1=p17udm21236.1.2 bus2=p17ulv20179.1.2 switch=n enabled=y phases=2 Linecode=1P_OH_AL_4/0_Zuzara_2

New Line.l(r:p17udm21239-p17ulv20737) Units=km Length=0.0151212 bus1=p17udm21239.1.2 bus2=p17ulv20737.1.2 switch=n enabled=y phases=2 Linecode=1P_OH_AL_2/0_Rucina_2

New Line.l(r:p17udm21236-p17udm21239) Units=km Length=0.0178107 bus1=p17udm21236.1.2 bus2=p17udm21239.1.2 switch=n enabled=y phases=2 Linecode=1P_OH_AL_2/0_Rucina_2

New Line.l(r:p17udm21236-p17udt5464lv) Units=km Length=0.0178108 bus1=p17udt5464lv.1.2 bus2=p17udm21236.1.2 switch=n enabled=y phases=2 Linecode=1P_OH_AL_2/0_Rucina_2

New Line.l(r:p17udm21238-p17ulv20727) Units=km Length=0.0128173 bus1=p17udm21238.1.2 bus2=p17ulv20727.1.2 switch=n enabled=y phases=2 Linecode=1P_OH_AL_2/0_Rucina_2

New Line.l(r:p17udm21238-p17udt5464lv) Units=km Length=0.0178107 bus1=p17udt5464lv.1.2 bus2=p17udm21238.1.2 switch=n enabled=y phases=2 Linecode=1P_OH_AL_2/0_Rucina_2

New Line.l(r:p17udt5487lv-p17ulv20239) Units=km Length=0.0921828 bus1=p17udt5487lv.1.2 bus2=p17ulv20239.1.2 switch=n enabled=y phases=2 Linecode=1P_OH_AL_4/0_Zuzara_2

New Line.l(r:p17udm21334-p17ulv20512) Units=km Length=0.10554600000000001 bus1=p17udm21334.1.2 bus2=p17ulv20512.1.2 switch=n enabled=y phases=2 Linecode=1P_OH_AL_4/0_Zuzara_2

New Line.l(r:p17udm21334-p17udt5487lv) Units=km Length=0.0197128 bus1=p17udt5487lv.1.2 bus2=p17udm21334.1.2 switch=n enabled=y phases=2 Linecode=1P_OH_AL_2/0_Rucina_2

New Line.l(r:p17udm21335-p17ulv20673) Units=km Length=0.016592 bus1=p17udm21335.1.2 bus2=p17ulv20673.1.2 switch=n enabled=y phases=2 Linecode=1P_OH_AL_2/0_Rucina_2

New Line.l(r:p17udm21335-p17ulv20807) Units=km Length=0.04536230000000001 bus1=p17udm21335.1.2 bus2=p17ulv20807.1.2 switch=n enabled=y phases=2 Linecode=1P_OH_AL_4/0_Zuzara_2

New Line.l(r:p17udm21335-p17udt5487lv) Units=km Length=0.0197128 bus1=p17udt5487lv.1.2 bus2=p17udm21335.1.2 switch=n enabled=y phases=2 Linecode=1P_OH_AL_2/0_Rucina_2

New Line.l(r:p17udt5491lv-p17ulv20704) Units=km Length=0.0302518 bus1=p17udt5491lv.1.2 bus2=p17ulv20704.1.2 switch=n enabled=y phases=2 Linecode=1P_OH_AL_4/0_Zuzara_2

New Line.l(r:p17udm21351-p17ulv20424) Units=km Length=0.030056000000000003 bus1=p17udm21351.1.2 bus2=p17ulv20424.1.2 switch=n enabled=y phases=2 Linecode=1P_OH_AL_4/0_Zuzara_2

New Line.l(r:p17udm21350-p17ulv20245) Units=km Length=0.0768773 bus1=p17udm21350.1.2 bus2=p17ulv20245.1.2 switch=n enabled=y phases=2 Linecode=1P_OH_AL_4/0_Zuzara_2
