New Load.load_p17ulv4648_1 conn=wye bus1=p17ulv4648.1 kV=0.12 Vminpu=0.8 Vmaxpu=1.2 model=1 kW=6.6638499229816075 kvar=0.5358436174433335 Phases=1 yearly=res_kw_7016_pu

New Load.load_p17ulv4648_2 conn=wye bus1=p17ulv4648.2 kV=0.12 Vminpu=0.8 Vmaxpu=1.2 model=1 kW=6.6638499229816075 kvar=0.5358436174433335 Phases=1 yearly=res_kw_7016_pu

New Load.load_p17ulv4651 conn=wye bus1=p17ulv4651.1.2.3 kV=0.48 Vminpu=0.8 Vmaxpu=1.2 model=1 kW=174.18444376984903 kvar=18.925022710852332 Phases=3 yearly=com_kw_29667_pu

New Load.load_p17ulv4656_1 conn=wye bus1=p17ulv4656.1 kV=0.12 Vminpu=0.8 Vmaxpu=1.2 model=1 kW=2.1071843463842206 kvar=0.6171440755942696 Phases=1 yearly=res_kw_5020_pu

New Load.load_p17ulv4656_2 conn=wye bus1=p17ulv4656.2 kV=0.12 Vminpu=0.8 Vmaxpu=1.2 model=1 kW=2.1071843463842206 kvar=0.6171440755942696 Phases=1 yearly=res_kw_5020_pu

New Load.load_p17ulv4672_1 conn=wye bus1=p17ulv4672.1 kV=0.12 Vminpu=0.8 Vmaxpu=1.2 model=1 kW=6.33682633754626 kvar=1.688030245882086 Phases=1 yearly=com_kw_20830_pu

New Load.load_p17ulv4672_2 conn=wye bus1=p17ulv4672.2 kV=0.12 Vminpu=0.8 Vmaxpu=1.2 model=1 kW=6.33682633754626 kvar=1.688030245882086 Phases=1 yearly=com_kw_20830_pu

New Load.load_p17ulv4675_1 conn=wye bus1=p17ulv4675.1 kV=0.12 Vminpu=0.8 Vmaxpu=1.2 model=1 kW=6.6046300734437695 kvar=1.6615053142491278 Phases=1 yearly=res_kw_14085_pu

New Load.load_p17ulv4675_2 conn=wye bus1=p17ulv4675.2 kV=0.12 Vminpu=0.8 Vmaxpu=1.2 model=1 kW=6.6046300734437695 kvar=1.6615053142491278 Phases=1 yearly=res_kw_14085_pu

New Load.load_p17ulv4688_1 conn=wye bus1=p17ulv4688.1 kV=0.12 Vminpu=0.8 Vmaxpu=1.2 model=1 kW=9.539595875753843 kvar=0.9261089250072709 Phases=1 yearly=res_kw_14728_pu

New Load.load_p17ulv4688_2 conn=wye bus1=p17ulv4688.2 kV=0.12 Vminpu=0.8 Vmaxpu=1.2 model=1 kW=9.539595875753843 kvar=0.9261089250072709 Phases=1 yearly=res_kw_14728_pu

New Load.load_p17ulv4709_1 conn=wye bus1=p17ulv4709.1 kV=0.12 Vminpu=0.8 Vmaxpu=1.2 model=1 kW=3.297417532176794 kvar=0.2780703813036578 Phases=1 yearly=res_kw_1657_pu

New Load.load_p17ulv4709_2 conn=wye bus1=p17ulv4709.2 kV=0.12 Vminpu=0.8 Vmaxpu=1.2 model=1 kW=3.297417532176794 kvar=0.2780703813036578 Phases=1 yearly=res_kw_1657_pu

New Load.load_p17ulv4710_1 conn=wye bus1=p17ulv4710.1 kV=0.12 Vminpu=0.8 Vmaxpu=1.2 model=1 kW=3.4277509099642414 kvar=0.3672358075563217 Phases=1 yearly=res_kw_3592_pu

New Load.load_p17ulv4710_2 conn=wye bus1=p17ulv4710.2 kV=0.12 Vminpu=0.8 Vmaxpu=1.2 model=1 kW=3.4277509099642414 kvar=0.3672358075563217 Phases=1 yearly=res_kw_3592_pu

New Load.load_p17ulv4715_1 conn=wye bus1=p17ulv4715.1 kV=0.12 Vminpu=0.8 Vmaxpu=1.2 model=1 kW=5.828469853780653 kvar=0.21450007869014182 Phases=1 yearly=res_kw_8883_pu

New Load.load_p17ulv4715_2 conn=wye bus1=p17ulv4715.2 kV=0.12 Vminpu=0.8 Vmaxpu=1.2 model=1 kW=5.828469853780653 kvar=0.21450007869014182 Phases=1 yearly=res_kw_8883_pu

New Load.load_p17ulv4722_1 conn=wye bus1=p17ulv4722.1 kV=0.12 Vminpu=0.8 Vmaxpu=1.2 model=1 kW=2.045719075567761 kvar=0.5768579687141782 Phases=1 yearly=res_kw_11512_pu

New Load.load_p17ulv4722_2 conn=wye bus1=p17ulv4722.2 kV=0.12 Vminpu=0.8 Vmaxpu=1.2 model=1 kW=2.045719075567761 kvar=0.5768579687141782 Phases=1 yearly=res_kw_11512_pu

New Load.load_p17ulv4770_1 conn=wye bus1=p17ulv4770.1 kV=0.12 Vminpu=0.8 Vmaxpu=1.2 model=1 kW=4.43100942068196 kvar=1.0076753372984877 Phases=1 yearly=res_kw_7851_pu

New Load.load_p17ulv4770_2 conn=wye bus1=p17ulv4770.2 kV=0.12 Vminpu=0.8 Vmaxpu=1.2 model=1 kW=4.43100942068196 kvar=1.0076753372984877 Phases=1 yearly=res_kw_7851_pu

New Load.load_p17ulv4783_1 conn=wye bus1=p17ulv4783.1 kV=0.12 Vminpu=0.8 Vmaxpu=1.2 model=1 kW=2.0263288002917053 kvar=0.546221099657035 Phases=1 yearly=com_kw_2638_pu

New Load.load_p17ulv4783_2 conn=wye bus1=p17ulv4783.2 kV=0.12 Vminpu=0.8 Vmaxpu=1.2 model=1 kW=2.0263288002917053 kvar=0.546221099657035 Phases=1 yearly=com_kw_2638_pu

New Load.load_p17ulv4791 conn=wye bus1=p17ulv4791.1.2.3 kV=0.48 Vminpu=0.8 Vmaxpu=1.2 model=1 kW=45.620965036334034 kvar=16.198762051697834 Phases=3 yearly=com_kw_41498_pu

New Load.load_p17ulv4814_1 conn=wye bus1=p17ulv4814.1 kV=0.12 Vminpu=0.8 Vmaxpu=1.2 model=1 kW=1.5315004956850187 kvar=0.5451120192288488 Phases=1 yearly=res_kw_11790_pu

New Load.load_p17ulv4814_2 conn=wye bus1=p17ulv4814.2 kV=0.12 Vminpu=0.8 Vmaxpu=1.2 model=1 kW=1.5315004956850187 kvar=0.5451120192288488 Phases=1 yearly=res_kw_11790_pu

New Load.load_p17ulv4822_1 conn=wye bus1=p17ulv4822.1 kV=0.12 Vminpu=0.8 Vmaxpu=1.2 model=1 kW=7.188052945729532 kvar=1.256619761937868 Phases=1 yearly=res_kw_11306_pu

New Load.load_p17ulv4822_2 conn=wye bus1=p17ulv4822.2 kV=0.12 Vminpu=0.8 Vmaxpu=1.2 model=1 kW=7.188052945729532 kvar=1.256619761937868 Phases=1 yearly=res_kw_11306_pu

New Load.load_p17ulv4831_1 conn=wye bus1=p17ulv4831.1 kV=0.12 Vminpu=0.8 Vmaxpu=1.2 model=1 kW=1.6676306342135938 kvar=0.5123446143614628 Phases=1 yearly=res_kw_14135_pu

New Load.load_p17ulv4831_2 conn=wye bus1=p17ulv4831.2 kV=0.12 Vminpu=0.8 Vmaxpu=1.2 model=1 kW=1.6676306342135938 kvar=0.5123446143614628 Phases=1 yearly=res_kw_14135_pu

New Load.load_p17ulv4842_1 conn=wye bus1=p17ulv4842.1 kV=0.12 Vminpu=0.8 Vmaxpu=1.2 model=1 kW=8.740041644269233 kvar=0.1041876898492159 Phases=1 yearly=res_kw_14411_pu

New Load.load_p17ulv4842_2 conn=wye bus1=p17ulv4842.2 kV=0.12 Vminpu=0.8 Vmaxpu=1.2 model=1 kW=8.740041644269233 kvar=0.1041876898492159 Phases=1 yearly=res_kw_14411_pu

New Load.load_p17ulv4868_1 conn=wye bus1=p17ulv4868.1 kV=0.12 Vminpu=0.8 Vmaxpu=1.2 model=1 kW=3.552610593545653 kvar=0.8416354574267249 Phases=1 yearly=res_kw_2021_pu

New Load.load_p17ulv4868_2 conn=wye bus1=p17ulv4868.2 kV=0.12 Vminpu=0.8 Vmaxpu=1.2 model=1 kW=3.552610593545653 kvar=0.8416354574267249 Phases=1 yearly=res_kw_2021_pu

New Load.load_p17ulv4876_1 conn=wye bus1=p17ulv4876.1 kV=0.12 Vminpu=0.8 Vmaxpu=1.2 model=1 kW=1.354712060637522 kvar=0.4837914100136788 Phases=1 yearly=res_kw_6243_pu

New Load.load_p17ulv4876_2 conn=wye bus1=p17ulv4876.2 kV=0.12 Vminpu=0.8 Vmaxpu=1.2 model=1 kW=1.354712060637522 kvar=0.4837914100136788 Phases=1 yearly=res_kw_6243_pu

New Load.load_p17ulv4900_1 conn=wye bus1=p17ulv4900.1 kV=0.12 Vminpu=0.8 Vmaxpu=1.2 model=1 kW=1.5273570095169426 kvar=0.3555993518165159 Phases=1 yearly=com_kw_41505_pu

New Load.load_p17ulv4900_2 conn=wye bus1=p17ulv4900.2 kV=0.12 Vminpu=0.8 Vmaxpu=1.2 model=1 kW=1.5273570095169426 kvar=0.3555993518165159 Phases=1 yearly=com_kw_41505_pu

New Load.load_p17ulv4973_1 conn=wye bus1=p17ulv4973.1 kV=0.12 Vminpu=0.8 Vmaxpu=1.2 model=1 kW=1.4027348768866257 kvar=0.4688021737709432 Phases=1 yearly=res_kw_11802_pu

New Load.load_p17ulv4973_2 conn=wye bus1=p17ulv4973.2 kV=0.12 Vminpu=0.8 Vmaxpu=1.2 model=1 kW=1.4027348768866257 kvar=0.4688021737709432 Phases=1 yearly=res_kw_11802_pu

New Load.load_p17ulv4991_1 conn=wye bus1=p17ulv4991.1 kV=0.12 Vminpu=0.8 Vmaxpu=1.2 model=1 kW=3.720587523988632 kvar=0.9621696219526856 Phases=1 yearly=res_kw_2070_pu

New Load.load_p17ulv4991_2 conn=wye bus1=p17ulv4991.2 kV=0.12 Vminpu=0.8 Vmaxpu=1.2 model=1 kW=3.720587523988632 kvar=0.9621696219526856 Phases=1 yearly=res_kw_2070_pu

New Load.load_p17ulv5068_1 conn=wye bus1=p17ulv5068.1 kV=0.12 Vminpu=0.8 Vmaxpu=1.2 model=1 kW=4.025862244582246 kvar=1.1423616747148284 Phases=1 yearly=res_kw_12348_pu

New Load.load_p17ulv5068_2 conn=wye bus1=p17ulv5068.2 kV=0.12 Vminpu=0.8 Vmaxpu=1.2 model=1 kW=4.025862244582246 kvar=1.1423616747148284 Phases=1 yearly=res_kw_12348_pu

New Load.load_p17ulv5120_1 conn=wye bus1=p17ulv5120.1 kV=0.12 Vminpu=0.8 Vmaxpu=1.2 model=1 kW=2.0240502132333855 kvar=0.5295456567023789 Phases=1 yearly=res_kw_10487_pu

New Load.load_p17ulv5120_2 conn=wye bus1=p17ulv5120.2 kV=0.12 Vminpu=0.8 Vmaxpu=1.2 model=1 kW=2.0240502132333855 kvar=0.5295456567023789 Phases=1 yearly=res_kw_10487_pu

New Load.load_p17ulv5133_1 conn=wye bus1=p17ulv5133.1 kV=0.12 Vminpu=0.8 Vmaxpu=1.2 model=1 kW=3.7464189326227366 kvar=1.4011494318939581 Phases=1 yearly=res_kw_557_pu

New Load.load_p17ulv5133_2 conn=wye bus1=p17ulv5133.2 kV=0.12 Vminpu=0.8 Vmaxpu=1.2 model=1 kW=3.7464189326227366 kvar=1.4011494318939581 Phases=1 yearly=res_kw_557_pu

New Load.load_p17ulv5210_1 conn=wye bus1=p17ulv5210.1 kV=0.12 Vminpu=0.8 Vmaxpu=1.2 model=1 kW=17.1528180326585 kvar=0.9333861344020667 Phases=1 yearly=res_kw_733_pu

New Load.load_p17ulv5210_2 conn=wye bus1=p17ulv5210.2 kV=0.12 Vminpu=0.8 Vmaxpu=1.2 model=1 kW=17.1528180326585 kvar=0.9333861344020667 Phases=1 yearly=res_kw_733_pu

New Load.load_p17ulv5211_1 conn=wye bus1=p17ulv5211.1 kV=0.12 Vminpu=0.8 Vmaxpu=1.2 model=1 kW=2.588777402735811 kvar=0.9891130162681171 Phases=1 yearly=res_kw_9945_pu

New Load.load_p17ulv5211_2 conn=wye bus1=p17ulv5211.2 kV=0.12 Vminpu=0.8 Vmaxpu=1.2 model=1 kW=2.588777402735811 kvar=0.9891130162681171 Phases=1 yearly=res_kw_9945_pu

New Load.load_p17ulv5332_1 conn=wye bus1=p17ulv5332.1 kV=0.12 Vminpu=0.8 Vmaxpu=1.2 model=1 kW=15.419657439663098 kvar=4.931479542026222 Phases=1 yearly=res_kw_7658_pu

New Load.load_p17ulv5332_2 conn=wye bus1=p17ulv5332.2 kV=0.12 Vminpu=0.8 Vmaxpu=1.2 model=1 kW=15.419657439663098 kvar=4.931479542026222 Phases=1 yearly=res_kw_7658_pu

New Load.load_p17ulv5334_1 conn=wye bus1=p17ulv5334.1 kV=0.12 Vminpu=0.8 Vmaxpu=1.2 model=1 kW=5.934052000230763 kvar=1.1318161004729588 Phases=1 yearly=res_kw_5966_pu

New Load.load_p17ulv5334_2 conn=wye bus1=p17ulv5334.2 kV=0.12 Vminpu=0.8 Vmaxpu=1.2 model=1 kW=5.934052000230763 kvar=1.1318161004729588 Phases=1 yearly=res_kw_5966_pu

New Load.load_p17ulv5355_1 conn=wye bus1=p17ulv5355.1 kV=0.12 Vminpu=0.8 Vmaxpu=1.2 model=1 kW=4.16480480858245 kvar=1.2372605265187042 Phases=1 yearly=res_kw_10169_pu

New Load.load_p17ulv5355_2 conn=wye bus1=p17ulv5355.2 kV=0.12 Vminpu=0.8 Vmaxpu=1.2 model=1 kW=4.16480480858245 kvar=1.2372605265187042 Phases=1 yearly=res_kw_10169_pu

New Load.load_p17ulv5392_1 conn=wye bus1=p17ulv5392.1 kV=0.12 Vminpu=0.8 Vmaxpu=1.2 model=1 kW=4.649329274745809 kvar=0.7638148765075456 Phases=1 yearly=res_kw_7653_pu

New Load.load_p17ulv5392_2 conn=wye bus1=p17ulv5392.2 kV=0.12 Vminpu=0.8 Vmaxpu=1.2 model=1 kW=4.649329274745809 kvar=0.7638148765075456 Phases=1 yearly=res_kw_7653_pu

New Load.load_p17ulv5405_1 conn=wye bus1=p17ulv5405.1 kV=0.12 Vminpu=0.8 Vmaxpu=1.2 model=1 kW=4.2604906961648235 kvar=0.15478532422089625 Phases=1 yearly=res_kw_8466_pu

New Load.load_p17ulv5405_2 conn=wye bus1=p17ulv5405.2 kV=0.12 Vminpu=0.8 Vmaxpu=1.2 model=1 kW=4.2604906961648235 kvar=0.15478532422089625 Phases=1 yearly=res_kw_8466_pu

New Load.load_p17ulv5431_1 conn=wye bus1=p17ulv5431.1 kV=0.12 Vminpu=0.8 Vmaxpu=1.2 model=1 kW=3.9074383092133864 kvar=0.08385670317934282 Phases=1 yearly=res_kw_6166_pu

New Load.load_p17ulv5431_2 conn=wye bus1=p17ulv5431.2 kV=0.12 Vminpu=0.8 Vmaxpu=1.2 model=1 kW=3.9074383092133864 kvar=0.08385670317934282 Phases=1 yearly=res_kw_6166_pu

New Load.load_p17ulv5436_1 conn=wye bus1=p17ulv5436.1 kV=0.12 Vminpu=0.8 Vmaxpu=1.2 model=1 kW=2.314954210015221 kvar=1.106584285278311 Phases=1 yearly=res_kw_48_pu

New Load.load_p17ulv5436_2 conn=wye bus1=p17ulv5436.2 kV=0.12 Vminpu=0.8 Vmaxpu=1.2 model=1 kW=2.314954210015221 kvar=1.106584285278311 Phases=1 yearly=res_kw_48_pu

New Load.load_p17ulv5454_1 conn=wye bus1=p17ulv5454.1 kV=0.12 Vminpu=0.8 Vmaxpu=1.2 model=1 kW=3.720587523988632 kvar=0.9621696219526856 Phases=1 yearly=res_kw_2070_pu

New Load.load_p17ulv5454_2 conn=wye bus1=p17ulv5454.2 kV=0.12 Vminpu=0.8 Vmaxpu=1.2 model=1 kW=3.720587523988632 kvar=0.9621696219526856 Phases=1 yearly=res_kw_2070_pu

New Load.load_p17ulv5511_1 conn=wye bus1=p17ulv5511.1 kV=0.12 Vminpu=0.8 Vmaxpu=1.2 model=1 kW=1.6540284771036238 kvar=0.604826436726383 Phases=1 yearly=res_kw_3977_pu

New Load.load_p17ulv5511_2 conn=wye bus1=p17ulv5511.2 kV=0.12 Vminpu=0.8 Vmaxpu=1.2 model=1 kW=1.6540284771036238 kvar=0.604826436726383 Phases=1 yearly=res_kw_3977_pu

New Load.load_p17ulv5544_1 conn=wye bus1=p17ulv5436.1 kV=0.12 Vminpu=0.8 Vmaxpu=1.2 model=1 kW=2.5620509514007144 kvar=0.9754394396059114 Phases=1 yearly=res_kw_10641_pu

New Load.load_p17ulv5544_2 conn=wye bus1=p17ulv5436.2 kV=0.12 Vminpu=0.8 Vmaxpu=1.2 model=1 kW=2.5620509514007144 kvar=0.9754394396059114 Phases=1 yearly=res_kw_10641_pu

New Load.load_p17ulv5560_1 conn=wye bus1=p17ulv5560.1 kV=0.12 Vminpu=0.8 Vmaxpu=1.2 model=1 kW=5.961931681908369 kvar=1.679314970659087 Phases=1 yearly=res_kw_7029_pu

New Load.load_p17ulv5560_2 conn=wye bus1=p17ulv5560.2 kV=0.12 Vminpu=0.8 Vmaxpu=1.2 model=1 kW=5.961931681908369 kvar=1.679314970659087 Phases=1 yearly=res_kw_7029_pu

New Load.load_p17ulv5598_1 conn=wye bus1=p17ulv5598.1 kV=0.12 Vminpu=0.8 Vmaxpu=1.2 model=1 kW=2.3810058275782695 kvar=1.0648129378047442 Phases=1 yearly=res_kw_13700_pu

New Load.load_p17ulv5598_2 conn=wye bus1=p17ulv5598.2 kV=0.12 Vminpu=0.8 Vmaxpu=1.2 model=1 kW=2.3810058275782695 kvar=1.0648129378047442 Phases=1 yearly=res_kw_13700_pu

New Load.load_p17ulv5601_1 conn=wye bus1=p17ulv5601.1 kV=0.12 Vminpu=0.8 Vmaxpu=1.2 model=1 kW=3.201469129926609 kvar=1.0819349187657892 Phases=1 yearly=res_kw_5939_pu

New Load.load_p17ulv5601_2 conn=wye bus1=p17ulv5601.2 kV=0.12 Vminpu=0.8 Vmaxpu=1.2 model=1 kW=3.201469129926609 kvar=1.0819349187657892 Phases=1 yearly=res_kw_5939_pu

New Load.load_p17ulv5613_1 conn=wye bus1=p17ulv5613.1 kV=0.12 Vminpu=0.8 Vmaxpu=1.2 model=1 kW=5.489102142350381 kvar=1.5270511103120832 Phases=1 yearly=res_kw_5231_pu

New Load.load_p17ulv5613_2 conn=wye bus1=p17ulv5613.2 kV=0.12 Vminpu=0.8 Vmaxpu=1.2 model=1 kW=5.489102142350381 kvar=1.5270511103120832 Phases=1 yearly=res_kw_5231_pu

New Load.load_p17ulv5614_1 conn=wye bus1=p17ulv5614.1 kV=0.12 Vminpu=0.8 Vmaxpu=1.2 model=1 kW=5.161297867120578 kvar=3.654296746412014 Phases=1 yearly=res_kw_9430_pu

New Load.load_p17ulv5614_2 conn=wye bus1=p17ulv5614.2 kV=0.12 Vminpu=0.8 Vmaxpu=1.2 model=1 kW=5.161297867120578 kvar=3.654296746412014 Phases=1 yearly=res_kw_9430_pu

New Load.load_p17ulv5625_1 conn=wye bus1=p17ulv5625.1 kV=0.12 Vminpu=0.8 Vmaxpu=1.2 model=1 kW=1.9081602199249383 kvar=0.8501728482203155 Phases=1 yearly=res_kw_12943_pu

New Load.load_p17ulv5625_2 conn=wye bus1=p17ulv5625.2 kV=0.12 Vminpu=0.8 Vmaxpu=1.2 model=1 kW=1.9081602199249383 kvar=0.8501728482203155 Phases=1 yearly=res_kw_12943_pu

New Load.load_p17ulv5644_1 conn=wye bus1=p17ulv5644.1 kV=0.12 Vminpu=0.8 Vmaxpu=1.2 model=1 kW=4.2604906961648235 kvar=0.15478532422089625 Phases=1 yearly=res_kw_8466_pu

New Load.load_p17ulv5644_2 conn=wye bus1=p17ulv5644.2 kV=0.12 Vminpu=0.8 Vmaxpu=1.2 model=1 kW=4.2604906961648235 kvar=0.15478532422089625 Phases=1 yearly=res_kw_8466_pu

New Load.load_p17ulv5657_1 conn=wye bus1=p17ulv5657.1 kV=0.12 Vminpu=0.8 Vmaxpu=1.2 model=1 kW=5.961931681908369 kvar=1.679314970659087 Phases=1 yearly=res_kw_7029_pu

New Load.load_p17ulv5657_2 conn=wye bus1=p17ulv5657.2 kV=0.12 Vminpu=0.8 Vmaxpu=1.2 model=1 kW=5.961931681908369 kvar=1.679314970659087 Phases=1 yearly=res_kw_7029_pu

New Load.load_p17ulv5668_1 conn=wye bus1=p17ulv5668.1 kV=0.12 Vminpu=0.8 Vmaxpu=1.2 model=1 kW=1.6540284771036238 kvar=0.604826436726383 Phases=1 yearly=res_kw_3977_pu

New Load.load_p17ulv5668_2 conn=wye bus1=p17ulv5668.2 kV=0.12 Vminpu=0.8 Vmaxpu=1.2 model=1 kW=1.6540284771036238 kvar=0.604826436726383 Phases=1 yearly=res_kw_3977_pu

New Load.load_p17ulv5684_1 conn=wye bus1=p17ulv5684.1 kV=0.12 Vminpu=0.8 Vmaxpu=1.2 model=1 kW=4.025862244582246 kvar=1.1423616747148284 Phases=1 yearly=res_kw_12348_pu

New Load.load_p17ulv5684_2 conn=wye bus1=p17ulv5684.2 kV=0.12 Vminpu=0.8 Vmaxpu=1.2 model=1 kW=4.025862244582246 kvar=1.1423616747148284 Phases=1 yearly=res_kw_12348_pu

New Load.load_p17ulv5686_1 conn=wye bus1=p17ulv5686.1 kV=0.12 Vminpu=0.8 Vmaxpu=1.2 model=1 kW=2.5776731389087666 kvar=1.3836809184870125 Phases=1 yearly=res_kw_3630_pu

New Load.load_p17ulv5686_2 conn=wye bus1=p17ulv5686.2 kV=0.12 Vminpu=0.8 Vmaxpu=1.2 model=1 kW=2.5776731389087666 kvar=1.3836809184870125 Phases=1 yearly=res_kw_3630_pu

New Load.load_p17ulv5692_1 conn=wye bus1=p17ulv5692.1 kV=0.12 Vminpu=0.8 Vmaxpu=1.2 model=1 kW=3.7914320470728176 kvar=1.2231079788227288 Phases=1 yearly=res_kw_1829_pu

New Load.load_p17ulv5692_2 conn=wye bus1=p17ulv5692.2 kV=0.12 Vminpu=0.8 Vmaxpu=1.2 model=1 kW=3.7914320470728176 kvar=1.2231079788227288 Phases=1 yearly=res_kw_1829_pu

New Load.load_p17ulv5704_1 conn=wye bus1=p17ulv5704.1 kV=0.12 Vminpu=0.8 Vmaxpu=1.2 model=1 kW=6.029340317181467 kvar=0.8428650524659024 Phases=1 yearly=res_kw_7631_pu

New Load.load_p17ulv5704_2 conn=wye bus1=p17ulv5704.2 kV=0.12 Vminpu=0.8 Vmaxpu=1.2 model=1 kW=6.029340317181467 kvar=0.8428650524659024 Phases=1 yearly=res_kw_7631_pu

New Load.load_p17ulv5708_1 conn=wye bus1=p17ulv5708.1 kV=0.12 Vminpu=0.8 Vmaxpu=1.2 model=1 kW=8.502284104670633 kvar=0.5421606485482514 Phases=1 yearly=res_kw_12963_pu

New Load.load_p17ulv5708_2 conn=wye bus1=p17ulv5708.2 kV=0.12 Vminpu=0.8 Vmaxpu=1.2 model=1 kW=8.502284104670633 kvar=0.5421606485482514 Phases=1 yearly=res_kw_12963_pu

New Load.load_p17ulv5717_1 conn=wye bus1=p17ulv5717.1 kV=0.12 Vminpu=0.8 Vmaxpu=1.2 model=1 kW=3.483789453463029 kvar=1.464903160692747 Phases=1 yearly=res_kw_2859_pu

New Load.load_p17ulv5717_2 conn=wye bus1=p17ulv5717.2 kV=0.12 Vminpu=0.8 Vmaxpu=1.2 model=1 kW=3.483789453463029 kvar=1.464903160692747 Phases=1 yearly=res_kw_2859_pu

New Load.load_p17ulv5726_1 conn=wye bus1=p17ulv5726.1 kV=0.12 Vminpu=0.8 Vmaxpu=1.2 model=1 kW=5.39493370055419 kvar=2.1193510144333216 Phases=1 yearly=res_kw_1957_pu

New Load.load_p17ulv5726_2 conn=wye bus1=p17ulv5726.2 kV=0.12 Vminpu=0.8 Vmaxpu=1.2 model=1 kW=5.39493370055419 kvar=2.1193510144333216 Phases=1 yearly=res_kw_1957_pu

New Load.load_p17ulv5728_1 conn=wye bus1=p17ulv5728.1 kV=0.12 Vminpu=0.8 Vmaxpu=1.2 model=1 kW=3.9074383092133864 kvar=0.08385670317934282 Phases=1 yearly=res_kw_6166_pu

New Load.load_p17ulv5728_2 conn=wye bus1=p17ulv5728.2 kV=0.12 Vminpu=0.8 Vmaxpu=1.2 model=1 kW=3.9074383092133864 kvar=0.08385670317934282 Phases=1 yearly=res_kw_6166_pu

New Load.load_p17ulv5743_1 conn=wye bus1=p17ulv5743.1 kV=0.12 Vminpu=0.8 Vmaxpu=1.2 model=1 kW=4.2604906961648235 kvar=0.15478532422089625 Phases=1 yearly=res_kw_8466_pu

New Load.load_p17ulv5743_2 conn=wye bus1=p17ulv5743.2 kV=0.12 Vminpu=0.8 Vmaxpu=1.2 model=1 kW=4.2604906961648235 kvar=0.15478532422089625 Phases=1 yearly=res_kw_8466_pu

New Load.load_p17ulv5746_1 conn=wye bus1=p17ulv5746.1 kV=0.12 Vminpu=0.8 Vmaxpu=1.2 model=1 kW=2.4082436890639105 kvar=1.156811070500272 Phases=1 yearly=res_kw_14615_pu

New Load.load_p17ulv5746_2 conn=wye bus1=p17ulv5746.2 kV=0.12 Vminpu=0.8 Vmaxpu=1.2 model=1 kW=2.4082436890639105 kvar=1.156811070500272 Phases=1 yearly=res_kw_14615_pu

New Load.load_p17ulv5750_1 conn=wye bus1=p17ulv5750.1 kV=0.12 Vminpu=0.8 Vmaxpu=1.2 model=1 kW=5.489102142350381 kvar=1.5270511103120832 Phases=1 yearly=res_kw_5231_pu

New Load.load_p17ulv5750_2 conn=wye bus1=p17ulv5750.2 kV=0.12 Vminpu=0.8 Vmaxpu=1.2 model=1 kW=5.489102142350381 kvar=1.5270511103120832 Phases=1 yearly=res_kw_5231_pu

New Load.load_p17ulv5754_1 conn=wye bus1=p17ulv5754.1 kV=0.12 Vminpu=0.8 Vmaxpu=1.2 model=1 kW=3.625319777434352 kvar=0.6268673114222736 Phases=1 yearly=res_kw_8349_pu

New Load.load_p17ulv5754_2 conn=wye bus1=p17ulv5754.2 kV=0.12 Vminpu=0.8 Vmaxpu=1.2 model=1 kW=3.625319777434352 kvar=0.6268673114222736 Phases=1 yearly=res_kw_8349_pu

New Load.load_p17ulv5767_1 conn=wye bus1=p17ulv5767.1 kV=0.12 Vminpu=0.8 Vmaxpu=1.2 model=1 kW=6.43627459928816 kvar=0.9477800477510742 Phases=1 yearly=res_kw_7096_pu

New Load.load_p17ulv5767_2 conn=wye bus1=p17ulv5767.2 kV=0.12 Vminpu=0.8 Vmaxpu=1.2 model=1 kW=6.43627459928816 kvar=0.9477800477510742 Phases=1 yearly=res_kw_7096_pu

New Load.load_p17ulv5769_1 conn=wye bus1=p17ulv5601.1 kV=0.12 Vminpu=0.8 Vmaxpu=1.2 model=1 kW=4.495896260878145 kvar=1.8131838430790903 Phases=1 yearly=res_kw_7389_pu

New Load.load_p17ulv5769_2 conn=wye bus1=p17ulv5601.2 kV=0.12 Vminpu=0.8 Vmaxpu=1.2 model=1 kW=4.495896260878145 kvar=1.8131838430790903 Phases=1 yearly=res_kw_7389_pu

New Load.load_p17ulv5773_1 conn=wye bus1=p17ulv5773.1 kV=0.12 Vminpu=0.8 Vmaxpu=1.2 model=1 kW=4.342234017500269 kvar=1.1548008302759505 Phases=1 yearly=res_kw_14962_pu

New Load.load_p17ulv5773_2 conn=wye bus1=p17ulv5773.2 kV=0.12 Vminpu=0.8 Vmaxpu=1.2 model=1 kW=4.342234017500269 kvar=1.1548008302759505 Phases=1 yearly=res_kw_14962_pu

New Load.load_p17ulv5784_1 conn=wye bus1=p17ulv5784.1 kV=0.12 Vminpu=0.8 Vmaxpu=1.2 model=1 kW=3.2478141049679135 kvar=1.1674904307651393 Phases=1 yearly=res_kw_7476_pu

New Load.load_p17ulv5784_2 conn=wye bus1=p17ulv5784.2 kV=0.12 Vminpu=0.8 Vmaxpu=1.2 model=1 kW=3.2478141049679135 kvar=1.1674904307651393 Phases=1 yearly=res_kw_7476_pu

New Load.load_p17ulv6276_1 conn=wye bus1=p17ulv6276.1 kV=0.12 Vminpu=0.8 Vmaxpu=1.2 model=1 kW=7.949065374243434 kvar=1.581937792834911 Phases=1 yearly=res_kw_9924_pu

New Load.load_p17ulv6276_2 conn=wye bus1=p17ulv6276.2 kV=0.12 Vminpu=0.8 Vmaxpu=1.2 model=1 kW=7.949065374243434 kvar=1.581937792834911 Phases=1 yearly=res_kw_9924_pu

New Load.load_p17ulv6289_1 conn=wye bus1=p17ulv6289.1 kV=0.12 Vminpu=0.8 Vmaxpu=1.2 model=1 kW=1.6540284771036238 kvar=0.604826436726383 Phases=1 yearly=res_kw_3977_pu

New Load.load_p17ulv6289_2 conn=wye bus1=p17ulv6289.2 kV=0.12 Vminpu=0.8 Vmaxpu=1.2 model=1 kW=1.6540284771036238 kvar=0.604826436726383 Phases=1 yearly=res_kw_3977_pu

New Load.load_p17ulv6295_1 conn=wye bus1=p17ulv6295.1 kV=0.12 Vminpu=0.8 Vmaxpu=1.2 model=1 kW=6.365105547923642 kvar=1.4233882210714333 Phases=1 yearly=res_kw_3118_pu

New Load.load_p17ulv6295_2 conn=wye bus1=p17ulv6295.2 kV=0.12 Vminpu=0.8 Vmaxpu=1.2 model=1 kW=6.365105547923642 kvar=1.4233882210714333 Phases=1 yearly=res_kw_3118_pu

New Load.load_p17ulv6306_1 conn=wye bus1=p17ulv6306.1 kV=0.12 Vminpu=0.8 Vmaxpu=1.2 model=1 kW=4.3504156790550885 kvar=1.0380428511501303 Phases=1 yearly=res_kw_13109_pu

New Load.load_p17ulv6306_2 conn=wye bus1=p17ulv6306.2 kV=0.12 Vminpu=0.8 Vmaxpu=1.2 model=1 kW=4.3504156790550885 kvar=1.0380428511501303 Phases=1 yearly=res_kw_13109_pu

New Load.load_p17ulv6308_1 conn=wye bus1=p17ulv6308.1 kV=0.12 Vminpu=0.8 Vmaxpu=1.2 model=1 kW=5.843929174701354 kvar=1.6406922921998741 Phases=1 yearly=res_kw_643_pu

New Load.load_p17ulv6308_2 conn=wye bus1=p17ulv6308.2 kV=0.12 Vminpu=0.8 Vmaxpu=1.2 model=1 kW=5.843929174701354 kvar=1.6406922921998741 Phases=1 yearly=res_kw_643_pu

New Load.load_p17ulv6321_1 conn=wye bus1=p17ulv6321.1 kV=0.12 Vminpu=0.8 Vmaxpu=1.2 model=1 kW=1.7139975961719658 kvar=0.5878194068703243 Phases=1 yearly=res_kw_11943_pu

New Load.load_p17ulv6321_2 conn=wye bus1=p17ulv6321.2 kV=0.12 Vminpu=0.8 Vmaxpu=1.2 model=1 kW=1.7139975961719658 kvar=0.5878194068703243 Phases=1 yearly=res_kw_11943_pu

New Load.load_p17ulv6334_1 conn=wye bus1=p17ulv6334.1 kV=0.12 Vminpu=0.8 Vmaxpu=1.2 model=1 kW=3.283752349161772 kvar=1.1583018658461228 Phases=1 yearly=res_kw_4012_pu

New Load.load_p17ulv6334_2 conn=wye bus1=p17ulv6334.2 kV=0.12 Vminpu=0.8 Vmaxpu=1.2 model=1 kW=3.283752349161772 kvar=1.1583018658461228 Phases=1 yearly=res_kw_4012_pu

New Load.load_p17ulv6335_1 conn=wye bus1=p17ulv6335.1 kV=0.12 Vminpu=0.8 Vmaxpu=1.2 model=1 kW=9.030592989429142 kvar=3.2915353419205817 Phases=1 yearly=res_kw_2841_pu

New Load.load_p17ulv6335_2 conn=wye bus1=p17ulv6335.2 kV=0.12 Vminpu=0.8 Vmaxpu=1.2 model=1 kW=9.030592989429142 kvar=3.2915353419205817 Phases=1 yearly=res_kw_2841_pu

New Load.load_p17ulv6348_1 conn=wye bus1=p17ulv6348.1 kV=0.12 Vminpu=0.8 Vmaxpu=1.2 model=1 kW=0.7812856221781264 kvar=0.29493523962554685 Phases=1 yearly=res_kw_11820_pu

New Load.load_p17ulv6348_2 conn=wye bus1=p17ulv6348.2 kV=0.12 Vminpu=0.8 Vmaxpu=1.2 model=1 kW=0.7812856221781264 kvar=0.29493523962554685 Phases=1 yearly=res_kw_11820_pu

New Load.load_p17ulv6349_1 conn=wye bus1=p17ulv6349.1 kV=0.12 Vminpu=0.8 Vmaxpu=1.2 model=1 kW=1.7073545875739424 kvar=0.6043909089250947 Phases=1 yearly=res_kw_2196_pu

New Load.load_p17ulv6349_2 conn=wye bus1=p17ulv6349.2 kV=0.12 Vminpu=0.8 Vmaxpu=1.2 model=1 kW=1.7073545875739424 kvar=0.6043909089250947 Phases=1 yearly=res_kw_2196_pu

New Load.load_p17ulv6350_1 conn=wye bus1=p17ulv6350.1 kV=0.12 Vminpu=0.8 Vmaxpu=1.2 model=1 kW=17.457561496943182 kvar=2.7648054103183033 Phases=1 yearly=res_kw_9927_pu

New Load.load_p17ulv6350_2 conn=wye bus1=p17ulv6350.2 kV=0.12 Vminpu=0.8 Vmaxpu=1.2 model=1 kW=17.457561496943182 kvar=2.7648054103183033 Phases=1 yearly=res_kw_9927_pu

New Load.load_p17ulv6354_1 conn=wye bus1=p17ulv6354.1 kV=0.12 Vminpu=0.8 Vmaxpu=1.2 model=1 kW=3.057088222115288 kvar=0.7769140588866867 Phases=1 yearly=res_kw_11642_pu

New Load.load_p17ulv6354_2 conn=wye bus1=p17ulv6354.2 kV=0.12 Vminpu=0.8 Vmaxpu=1.2 model=1 kW=3.057088222115288 kvar=0.7769140588866867 Phases=1 yearly=res_kw_11642_pu

New Load.load_p17ulv6358_1 conn=wye bus1=p17ulv6358.1 kV=0.12 Vminpu=0.8 Vmaxpu=1.2 model=1 kW=4.38008634023516 kvar=0.2705300573238842 Phases=1 yearly=res_kw_4586_pu

New Load.load_p17ulv6358_2 conn=wye bus1=p17ulv6358.2 kV=0.12 Vminpu=0.8 Vmaxpu=1.2 model=1 kW=4.38008634023516 kvar=0.2705300573238842 Phases=1 yearly=res_kw_4586_pu

New Load.load_p17ulv6359_1 conn=wye bus1=p17ulv6359.1 kV=0.12 Vminpu=0.8 Vmaxpu=1.2 model=1 kW=1.4763903715793119 kvar=0.567835118024353 Phases=1 yearly=res_kw_10479_pu

New Load.load_p17ulv6359_2 conn=wye bus1=p17ulv6359.2 kV=0.12 Vminpu=0.8 Vmaxpu=1.2 model=1 kW=1.4763903715793119 kvar=0.567835118024353 Phases=1 yearly=res_kw_10479_pu

New Load.load_p17ulv6360_1 conn=wye bus1=p17ulv6360.1 kV=0.12 Vminpu=0.8 Vmaxpu=1.2 model=1 kW=4.178802493278684 kvar=1.1784670344199408 Phases=1 yearly=res_kw_13091_pu

New Load.load_p17ulv6360_2 conn=wye bus1=p17ulv6360.2 kV=0.12 Vminpu=0.8 Vmaxpu=1.2 model=1 kW=4.178802493278684 kvar=1.1784670344199408 Phases=1 yearly=res_kw_13091_pu

New Load.load_p17ulv6362_1 conn=wye bus1=p17ulv6362.1 kV=0.12 Vminpu=0.8 Vmaxpu=1.2 model=1 kW=2.050704237020096 kvar=0.9271843556587984 Phases=1 yearly=res_kw_1201_pu

New Load.load_p17ulv6362_2 conn=wye bus1=p17ulv6362.2 kV=0.12 Vminpu=0.8 Vmaxpu=1.2 model=1 kW=2.050704237020096 kvar=0.9271843556587984 Phases=1 yearly=res_kw_1201_pu

New Load.load_p17ulv6366_1 conn=wye bus1=p17ulv6366.1 kV=0.12 Vminpu=0.8 Vmaxpu=1.2 model=1 kW=14.765377040064397 kvar=3.89785828197041 Phases=1 yearly=res_kw_11953_pu

New Load.load_p17ulv6366_2 conn=wye bus1=p17ulv6366.2 kV=0.12 Vminpu=0.8 Vmaxpu=1.2 model=1 kW=14.765377040064397 kvar=3.89785828197041 Phases=1 yearly=res_kw_11953_pu

New Load.load_p17ulv6369_1 conn=wye bus1=p17ulv6369.1 kV=0.12 Vminpu=0.8 Vmaxpu=1.2 model=1 kW=3.2540429427309796 kvar=0.6046809072354076 Phases=1 yearly=res_kw_61_pu

New Load.load_p17ulv6369_2 conn=wye bus1=p17ulv6369.2 kV=0.12 Vminpu=0.8 Vmaxpu=1.2 model=1 kW=3.2540429427309796 kvar=0.6046809072354076 Phases=1 yearly=res_kw_61_pu

New Load.load_p17ulv6375_1 conn=wye bus1=p17ulv6375.1 kV=0.12 Vminpu=0.8 Vmaxpu=1.2 model=1 kW=2.2332898223393483 kvar=0.8287577917098732 Phases=1 yearly=res_kw_2345_pu

New Load.load_p17ulv6375_2 conn=wye bus1=p17ulv6375.2 kV=0.12 Vminpu=0.8 Vmaxpu=1.2 model=1 kW=2.2332898223393483 kvar=0.8287577917098732 Phases=1 yearly=res_kw_2345_pu

New Load.load_p17ulv6384_1 conn=wye bus1=p17ulv6384.1 kV=0.12 Vminpu=0.8 Vmaxpu=1.2 model=1 kW=5.14620882570856 kvar=1.961440340260409 Phases=1 yearly=res_kw_1989_pu

New Load.load_p17ulv6384_2 conn=wye bus1=p17ulv6384.2 kV=0.12 Vminpu=0.8 Vmaxpu=1.2 model=1 kW=5.14620882570856 kvar=1.961440340260409 Phases=1 yearly=res_kw_1989_pu

New Load.load_p17ulv6409_1 conn=wye bus1=p17ulv6409.1 kV=0.12 Vminpu=0.8 Vmaxpu=1.2 model=1 kW=3.75474782414696 kvar=0.5127105082549034 Phases=1 yearly=res_kw_14721_pu

New Load.load_p17ulv6409_2 conn=wye bus1=p17ulv6409.2 kV=0.12 Vminpu=0.8 Vmaxpu=1.2 model=1 kW=3.75474782414696 kvar=0.5127105082549034 Phases=1 yearly=res_kw_14721_pu

New Load.load_p17ulv6410_1 conn=wye bus1=p17ulv6410.1 kV=0.12 Vminpu=0.8 Vmaxpu=1.2 model=1 kW=3.625319777434352 kvar=0.6268673114222736 Phases=1 yearly=res_kw_8349_pu

New Load.load_p17ulv6410_2 conn=wye bus1=p17ulv6410.2 kV=0.12 Vminpu=0.8 Vmaxpu=1.2 model=1 kW=3.625319777434352 kvar=0.6268673114222736 Phases=1 yearly=res_kw_8349_pu

New Load.load_p17ulv6412_1 conn=wye bus1=p17ulv6412.1 kV=0.12 Vminpu=0.8 Vmaxpu=1.2 model=1 kW=2.5776731389087666 kvar=1.3836809184870125 Phases=1 yearly=res_kw_3630_pu

New Load.load_p17ulv6412_2 conn=wye bus1=p17ulv6412.2 kV=0.12 Vminpu=0.8 Vmaxpu=1.2 model=1 kW=2.5776731389087666 kvar=1.3836809184870125 Phases=1 yearly=res_kw_3630_pu

New Load.load_p17ulv6415_1 conn=wye bus1=p17ulv6415.1 kV=0.12 Vminpu=0.8 Vmaxpu=1.2 model=1 kW=1.9814077971338804 kvar=0.7173927015826042 Phases=1 yearly=res_kw_5366_pu

New Load.load_p17ulv6415_2 conn=wye bus1=p17ulv6415.2 kV=0.12 Vminpu=0.8 Vmaxpu=1.2 model=1 kW=1.9814077971338804 kvar=0.7173927015826042 Phases=1 yearly=res_kw_5366_pu

New Load.load_p17ulv6417_1 conn=wye bus1=p17ulv6417.1 kV=0.12 Vminpu=0.8 Vmaxpu=1.2 model=1 kW=3.625319777434352 kvar=0.6268673114222736 Phases=1 yearly=res_kw_8349_pu

New Load.load_p17ulv6417_2 conn=wye bus1=p17ulv6417.2 kV=0.12 Vminpu=0.8 Vmaxpu=1.2 model=1 kW=3.625319777434352 kvar=0.6268673114222736 Phases=1 yearly=res_kw_8349_pu

New Load.load_p17ulv6419_1 conn=wye bus1=p17ulv6419.1 kV=0.12 Vminpu=0.8 Vmaxpu=1.2 model=1 kW=4.666791013286256 kvar=1.1771872459147903 Phases=1 yearly=res_kw_13338_pu

New Load.load_p17ulv6419_2 conn=wye bus1=p17ulv6419.2 kV=0.12 Vminpu=0.8 Vmaxpu=1.2 model=1 kW=4.666791013286256 kvar=1.1771872459147903 Phases=1 yearly=res_kw_13338_pu

New Load.load_p17ulv6422_1 conn=wye bus1=p17ulv6422.1 kV=0.12 Vminpu=0.8 Vmaxpu=1.2 model=1 kW=4.728425530745831 kvar=1.3995045736112663 Phases=1 yearly=res_kw_7264_pu

New Load.load_p17ulv6422_2 conn=wye bus1=p17ulv6422.2 kV=0.12 Vminpu=0.8 Vmaxpu=1.2 model=1 kW=4.728425530745831 kvar=1.3995045736112663 Phases=1 yearly=res_kw_7264_pu

New Load.load_p17ulv6442_1 conn=wye bus1=p17ulv6442.1 kV=0.12 Vminpu=0.8 Vmaxpu=1.2 model=1 kW=5.374987363430531 kvar=0.2502445808692977 Phases=1 yearly=res_kw_6607_pu