New Loadshape.SFO_37.9742_-121.9348_55_135 npts= 35040 interval=0.25 mult = (file=../../../../../profiles/SFO_37.9742_-121.9348_55_135.csv)

New Loadshape.SFO_37.9742_-121.9348_35_225 npts= 35040 interval=0.25 mult = (file=../../../../../profiles/SFO_37.9742_-121.9348_35_225.csv)

New Loadshape.SFO_37.9742_-121.9348_15_180 npts= 35040 interval=0.25 mult = (file=../../../../../profiles/SFO_37.9742_-121.9348_15_180.csv)

New Loadshape.SFO_37.9742_-121.9348_35_90 npts= 35040 interval=0.25 mult = (file=../../../../../profiles/SFO_37.9742_-121.9348_35_90.csv)

New Loadshape.SFO_37.9742_-121.9348_15_270 npts= 35040 interval=0.25 mult = (file=../../../../../profiles/SFO_37.9742_-121.9348_15_270.csv)

New Loadshape.SFO_37.9742_-121.9348_35_180 npts= 35040 interval=0.25 mult = (file=../../../../../profiles/SFO_37.9742_-121.9348_35_180.csv)

New Loadshape.SFO_37.9742_-121.9348_25_270 npts= 35040 interval=0.25 mult = (file=../../../../../profiles/SFO_37.9742_-121.9348_25_270.csv)

New Loadshape.SFO_37.9742_-121.9348_15_225 npts= 35040 interval=0.25 mult = (file=../../../../../profiles/SFO_37.9742_-121.9348_15_225.csv)

New Loadshape.SFO_37.9742_-121.9348_25_135 npts= 35040 interval=0.25 mult = (file=../../../../../profiles/SFO_37.9742_-121.9348_25_135.csv)

New Loadshape.SFO_37.9742_-121.9348_15_90 npts= 35040 interval=0.25 mult = (file=../../../../../profiles/SFO_37.9742_-121.9348_15_90.csv)

New Loadshape.SFO_37.9742_-121.9348_55_225 npts= 35040 interval=0.25 mult = (file=../../../../../profiles/SFO_37.9742_-121.9348_55_225.csv)

New Loadshape.SFO_37.9742_-121.9348_15_135 npts= 35040 interval=0.25 mult = (file=../../../../../profiles/SFO_37.9742_-121.9348_15_135.csv)

New Loadshape.SFO_37.9742_-121.9348_25_225 npts= 35040 interval=0.25 mult = (file=../../../../../profiles/SFO_37.9742_-121.9348_25_225.csv)

New Loadshape.SFO_37.9742_-121.9348_35_135 npts= 35040 interval=0.25 mult = (file=../../../../../profiles/SFO_37.9742_-121.9348_35_135.csv)

New Loadshape.SFO_37.9742_-121.9348_25_180 npts= 35040 interval=0.25 mult = (file=../../../../../profiles/SFO_37.9742_-121.9348_25_180.csv)

New Loadshape.SFO_37.9742_-121.9348_35_270 npts= 35040 interval=0.25 mult = (file=../../../../../profiles/SFO_37.9742_-121.9348_35_270.csv)

New Loadshape.SFO_37.9742_-121.9348_45_90 npts= 35040 interval=0.25 mult = (file=../../../../../profiles/SFO_37.9742_-121.9348_45_90.csv)

New Loadshape.SFO_37.9742_-121.9348_45_135 npts= 35040 interval=0.25 mult = (file=../../../../../profiles/SFO_37.9742_-121.9348_45_135.csv)

New Loadshape.SFO_37.9742_-121.9348_25_90 npts= 35040 interval=0.25 mult = (file=../../../../../profiles/SFO_37.9742_-121.9348_25_90.csv)

New Loadshape.SFO_37.9742_-121.9348_45_180 npts= 35040 interval=0.25 mult = (file=../../../../../profiles/SFO_37.9742_-121.9348_45_180.csv)

New Loadshape.SFO_37.9742_-121.9348_45_225 npts= 35040 interval=0.25 mult = (file=../../../../../profiles/SFO_37.9742_-121.9348_45_225.csv)

New Loadshape.SFO_37.9742_-121.9348_45_270 npts= 35040 interval=0.25 mult = (file=../../../../../profiles/SFO_37.9742_-121.9348_45_270.csv)

New Loadshape.res_kw_7016_pu npts= 35040 interval=0.25 mult = (file=../../../../../profiles/res_kw_7016_pu.csv) qmult = (file=../../../../../profiles/res_kvar_7016_pu.csv)

New Loadshape.res_kw_5020_pu npts= 35040 interval=0.25 mult = (file=../../../../../profiles/res_kw_5020_pu.csv) qmult = (file=../../../../../profiles/res_kvar_5020_pu.csv)

New Loadshape.res_kw_14085_pu npts= 35040 interval=0.25 mult = (file=../../../../../profiles/res_kw_14085_pu.csv) qmult = (file=../../../../../profiles/res_kvar_14085_pu.csv)

New Loadshape.res_kw_14728_pu npts= 35040 interval=0.25 mult = (file=../../../../../profiles/res_kw_14728_pu.csv) qmult = (file=../../../../../profiles/res_kvar_14728_pu.csv)

New Loadshape.res_kw_1657_pu npts= 35040 interval=0.25 mult = (file=../../../../../profiles/res_kw_1657_pu.csv) qmult = (file=../../../../../profiles/res_kvar_1657_pu.csv)

New Loadshape.res_kw_3592_pu npts= 35040 interval=0.25 mult = (file=../../../../../profiles/res_kw_3592_pu.csv) qmult = (file=../../../../../profiles/res_kvar_3592_pu.csv)

New Loadshape.res_kw_8883_pu npts= 35040 interval=0.25 mult = (file=../../../../../profiles/res_kw_8883_pu.csv) qmult = (file=../../../../../profiles/res_kvar_8883_pu.csv)

New Loadshape.res_kw_11512_pu npts= 35040 interval=0.25 mult = (file=../../../../../profiles/res_kw_11512_pu.csv) qmult = (file=../../../../../profiles/res_kvar_11512_pu.csv)

New Loadshape.res_kw_7851_pu npts= 35040 interval=0.25 mult = (file=../../../../../profiles/res_kw_7851_pu.csv) qmult = (file=../../../../../profiles/res_kvar_7851_pu.csv)

New Loadshape.res_kw_11790_pu npts= 35040 interval=0.25 mult = (file=../../../../../profiles/res_kw_11790_pu.csv) qmult = (file=../../../../../profiles/res_kvar_11790_pu.csv)

New Loadshape.res_kw_11306_pu npts= 35040 interval=0.25 mult = (file=../../../../../profiles/res_kw_11306_pu.csv) qmult = (file=../../../../../profiles/res_kvar_11306_pu.csv)

New Loadshape.res_kw_14135_pu npts= 35040 interval=0.25 mult = (file=../../../../../profiles/res_kw_14135_pu.csv) qmult = (file=../../../../../profiles/res_kvar_14135_pu.csv)

New Loadshape.res_kw_14411_pu npts= 35040 interval=0.25 mult = (file=../../../../../profiles/res_kw_14411_pu.csv) qmult = (file=../../../../../profiles/res_kvar_14411_pu.csv)

New Loadshape.res_kw_2021_pu npts= 35040 interval=0.25 mult = (file=../../../../../profiles/res_kw_2021_pu.csv) qmult = (file=../../../../../profiles/res_kvar_2021_pu.csv)

New Loadshape.res_kw_6243_pu npts= 35040 interval=0.25 mult = (file=../../../../../profiles/res_kw_6243_pu.csv) qmult = (file=../../../../../profiles/res_kvar_6243_pu.csv)

New Loadshape.res_kw_11802_pu npts= 35040 interval=0.25 mult = (file=../../../../../profiles/res_kw_11802_pu.csv) qmult = (file=../../../../../profiles/res_kvar_11802_pu.csv)

New Loadshape.res_kw_2070_pu npts= 35040 interval=0.25 mult = (file=../../../../../profiles/res_kw_2070_pu.csv) qmult = (file=../../../../../profiles/res_kvar_2070_pu.csv)

New Loadshape.res_kw_12348_pu npts= 35040 interval=0.25 mult = (file=../../../../../profiles/res_kw_12348_pu.csv) qmult = (file=../../../../../profiles/res_kvar_12348_pu.csv)

New Loadshape.res_kw_10487_pu npts= 35040 interval=0.25 mult = (file=../../../../../profiles/res_kw_10487_pu.csv) qmult = (file=../../../../../profiles/res_kvar_10487_pu.csv)

New Loadshape.res_kw_557_pu npts= 35040 interval=0.25 mult = (file=../../../../../profiles/res_kw_557_pu.csv) qmult = (file=../../../../../profiles/res_kvar_557_pu.csv)

New Loadshape.res_kw_733_pu npts= 35040 interval=0.25 mult = (file=../../../../../profiles/res_kw_733_pu.csv) qmult = (file=../../../../../profiles/res_kvar_733_pu.csv)

New Loadshape.res_kw_9945_pu npts= 35040 interval=0.25 mult = (file=../../../../../profiles/res_kw_9945_pu.csv) qmult = (file=../../../../../profiles/res_kvar_9945_pu.csv)

New Loadshape.res_kw_7658_pu npts= 35040 interval=0.25 mult = (file=../../../../../profiles/res_kw_7658_pu.csv) qmult = (file=../../../../../profiles/res_kvar_7658_pu.csv)

New Loadshape.res_kw_5966_pu npts= 35040 interval=0.25 mult = (file=../../../../../profiles/res_kw_5966_pu.csv) qmult = (file=../../../../../profiles/res_kvar_5966_pu.csv)

New Loadshape.res_kw_10169_pu npts= 35040 interval=0.25 mult = (file=../../../../../profiles/res_kw_10169_pu.csv) qmult = (file=../../../../../profiles/res_kvar_10169_pu.csv)

New Loadshape.res_kw_7653_pu npts= 35040 interval=0.25 mult = (file=../../../../../profiles/res_kw_7653_pu.csv) qmult = (file=../../../../../profiles/res_kvar_7653_pu.csv)

New Loadshape.res_kw_8466_pu npts= 35040 interval=0.25 mult = (file=../../../../../profiles/res_kw_8466_pu.csv) qmult = (file=../../../../../profiles/res_kvar_8466_pu.csv)

New Loadshape.res_kw_6166_pu npts= 35040 interval=0.25 mult = (file=../../../../../profiles/res_kw_6166_pu.csv) qmult = (file=../../../../../profiles/res_kvar_6166_pu.csv)

New Loadshape.res_kw_48_pu npts= 35040 interval=0.25 mult = (file=../../../../../profiles/res_kw_48_pu.csv) qmult = (file=../../../../../profiles/res_kvar_48_pu.csv)

New Loadshape.res_kw_3977_pu npts= 35040 interval=0.25 mult = (file=../../../../../profiles/res_kw_3977_pu.csv) qmult = (file=../../../../../profiles/res_kvar_3977_pu.csv)

New Loadshape.res_kw_10641_pu npts= 35040 interval=0.25 mult = (file=../../../../../profiles/res_kw_10641_pu.csv) qmult = (file=../../../../../profiles/res_kvar_10641_pu.csv)

New Loadshape.res_kw_7029_pu npts= 35040 interval=0.25 mult = (file=../../../../../profiles/res_kw_7029_pu.csv) qmult = (file=../../../../../profiles/res_kvar_7029_pu.csv)

New Loadshape.res_kw_13700_pu npts= 35040 interval=0.25 mult = (file=../../../../../profiles/res_kw_13700_pu.csv) qmult = (file=../../../../../profiles/res_kvar_13700_pu.csv)

New Loadshape.res_kw_5939_pu npts= 35040 interval=0.25 mult = (file=../../../../../profiles/res_kw_5939_pu.csv) qmult = (file=../../../../../profiles/res_kvar_5939_pu.csv)

New Loadshape.res_kw_5231_pu npts= 35040 interval=0.25 mult = (file=../../../../../profiles/res_kw_5231_pu.csv) qmult = (file=../../../../../profiles/res_kvar_5231_pu.csv)

New Loadshape.res_kw_9430_pu npts= 35040 interval=0.25 mult = (file=../../../../../profiles/res_kw_9430_pu.csv) qmult = (file=../../../../../profiles/res_kvar_9430_pu.csv)

New Loadshape.res_kw_12943_pu npts= 35040 interval=0.25 mult = (file=../../../../../profiles/res_kw_12943_pu.csv) qmult = (file=../../../../../profiles/res_kvar_12943_pu.csv)

New Loadshape.res_kw_3630_pu npts= 35040 interval=0.25 mult = (file=../../../../../profiles/res_kw_3630_pu.csv) qmult = (file=../../../../../profiles/res_kvar_3630_pu.csv)

New Loadshape.res_kw_1829_pu npts= 35040 interval=0.25 mult = (file=../../../../../profiles/res_kw_1829_pu.csv) qmult = (file=../../../../../profiles/res_kvar_1829_pu.csv)

New Loadshape.res_kw_7631_pu npts= 35040 interval=0.25 mult = (file=../../../../../profiles/res_kw_7631_pu.csv) qmult = (file=../../../../../profiles/res_kvar_7631_pu.csv)

New Loadshape.res_kw_12963_pu npts= 35040 interval=0.25 mult = (file=../../../../../profiles/res_kw_12963_pu.csv) qmult = (file=../../../../../profiles/res_kvar_12963_pu.csv)

New Loadshape.res_kw_2859_pu npts= 35040 interval=0.25 mult = (file=../../../../../profiles/res_kw_2859_pu.csv) qmult = (file=../../../../../profiles/res_kvar_2859_pu.csv)

New Loadshape.res_kw_1957_pu npts= 35040 interval=0.25 mult = (file=../../../../../profiles/res_kw_1957_pu.csv) qmult = (file=../../../../../profiles/res_kvar_1957_pu.csv)

New Loadshape.res_kw_14615_pu npts= 35040 interval=0.25 mult = (file=../../../../../profiles/res_kw_14615_pu.csv) qmult = (file=../../../../../profiles/res_kvar_14615_pu.csv)

New Loadshape.res_kw_8349_pu npts= 35040 interval=0.25 mult = (file=../../../../../profiles/res_kw_8349_pu.csv) qmult = (file=../../../../../profiles/res_kvar_8349_pu.csv)

New Loadshape.res_kw_7096_pu npts= 35040 interval=0.25 mult = (file=../../../../../profiles/res_kw_7096_pu.csv) qmult = (file=../../../../../profiles/res_kvar_7096_pu.csv)

New Loadshape.res_kw_7389_pu npts= 35040 interval=0.25 mult = (file=../../../../../profiles/res_kw_7389_pu.csv) qmult = (file=../../../../../profiles/res_kvar_7389_pu.csv)

New Loadshape.res_kw_14962_pu npts= 35040 interval=0.25 mult = (file=../../../../../profiles/res_kw_14962_pu.csv) qmult = (file=../../../../../profiles/res_kvar_14962_pu.csv)

New Loadshape.res_kw_7476_pu npts= 35040 interval=0.25 mult = (file=../../../../../profiles/res_kw_7476_pu.csv) qmult = (file=../../../../../profiles/res_kvar_7476_pu.csv)

New Loadshape.res_kw_9924_pu npts= 35040 interval=0.25 mult = (file=../../../../../profiles/res_kw_9924_pu.csv) qmult = (file=../../../../../profiles/res_kvar_9924_pu.csv)

New Loadshape.res_kw_3118_pu npts= 35040 interval=0.25 mult = (file=../../../../../profiles/res_kw_3118_pu.csv) qmult = (file=../../../../../profiles/res_kvar_3118_pu.csv)

New Loadshape.res_kw_13109_pu npts= 35040 interval=0.25 mult = (file=../../../../../profiles/res_kw_13109_pu.csv) qmult = (file=../../../../../profiles/res_kvar_13109_pu.csv)

New Loadshape.res_kw_643_pu npts= 35040 interval=0.25 mult = (file=../../../../../profiles/res_kw_643_pu.csv) qmult = (file=../../../../../profiles/res_kvar_643_pu.csv)

New Loadshape.res_kw_11943_pu npts= 35040 interval=0.25 mult = (file=../../../../../profiles/res_kw_11943_pu.csv) qmult = (file=../../../../../profiles/res_kvar_11943_pu.csv)

New Loadshape.res_kw_4012_pu npts= 35040 interval=0.25 mult = (file=../../../../../profiles/res_kw_4012_pu.csv) qmult = (file=../../../../../profiles/res_kvar_4012_pu.csv)

New Loadshape.res_kw_2841_pu npts= 35040 interval=0.25 mult = (file=../../../../../profiles/res_kw_2841_pu.csv) qmult = (file=../../../../../profiles/res_kvar_2841_pu.csv)

New Loadshape.res_kw_11820_pu npts= 35040 interval=0.25 mult = (file=../../../../../profiles/res_kw_11820_pu.csv) qmult = (file=../../../../../profiles/res_kvar_11820_pu.csv)

New Loadshape.res_kw_2196_pu npts= 35040 interval=0.25 mult = (file=../../../../../profiles/res_kw_2196_pu.csv) qmult = (file=../../../../../profiles/res_kvar_2196_pu.csv)

New Loadshape.res_kw_9927_pu npts= 35040 interval=0.25 mult = (file=../../../../../profiles/res_kw_9927_pu.csv) qmult = (file=../../../../../profiles/res_kvar_9927_pu.csv)

New Loadshape.res_kw_11642_pu npts= 35040 interval=0.25 mult = (file=../../../../../profiles/res_kw_11642_pu.csv) qmult = (file=../../../../../profiles/res_kvar_11642_pu.csv)

New Loadshape.res_kw_4586_pu npts= 35040 interval=0.25 mult = (file=../../../../../profiles/res_kw_4586_pu.csv) qmult = (file=../../../../../profiles/res_kvar_4586_pu.csv)

New Loadshape.res_kw_10479_pu npts= 35040 interval=0.25 mult = (file=../../../../../profiles/res_kw_10479_pu.csv) qmult = (file=../../../../../profiles/res_kvar_10479_pu.csv)

New Loadshape.res_kw_13091_pu npts= 35040 interval=0.25 mult = (file=../../../../../profiles/res_kw_13091_pu.csv) qmult = (file=../../../../../profiles/res_kvar_13091_pu.csv)

New Loadshape.res_kw_1201_pu npts= 35040 interval=0.25 mult = (file=../../../../../profiles/res_kw_1201_pu.csv) qmult = (file=../../../../../profiles/res_kvar_1201_pu.csv)

New Loadshape.res_kw_11953_pu npts= 35040 interval=0.25 mult = (file=../../../../../profiles/res_kw_11953_pu.csv) qmult = (file=../../../../../profiles/res_kvar_11953_pu.csv)

New Loadshape.res_kw_61_pu npts= 35040 interval=0.25 mult = (file=../../../../../profiles/res_kw_61_pu.csv) qmult = (file=../../../../../profiles/res_kvar_61_pu.csv)

New Loadshape.res_kw_2345_pu npts= 35040 interval=0.25 mult = (file=../../../../../profiles/res_kw_2345_pu.csv) qmult = (file=../../../../../profiles/res_kvar_2345_pu.csv)

New Loadshape.res_kw_1989_pu npts= 35040 interval=0.25 mult = (file=../../../../../profiles/res_kw_1989_pu.csv) qmult = (file=../../../../../profiles/res_kvar_1989_pu.csv)

New Loadshape.res_kw_14721_pu npts= 35040 interval=0.25 mult = (file=../../../../../profiles/res_kw_14721_pu.csv) qmult = (file=../../../../../profiles/res_kvar_14721_pu.csv)

New Loadshape.res_kw_5366_pu npts= 35040 interval=0.25 mult = (file=../../../../../profiles/res_kw_5366_pu.csv) qmult = (file=../../../../../profiles/res_kvar_5366_pu.csv)

New Loadshape.res_kw_13338_pu npts= 35040 interval=0.25 mult = (file=../../../../../profiles/res_kw_13338_pu.csv) qmult = (file=../../../../../profiles/res_kvar_13338_pu.csv)

New Loadshape.res_kw_7264_pu npts= 35040 interval=0.25 mult = (file=../../../../../profiles/res_kw_7264_pu.csv) qmult = (file=../../../../../profiles/res_kvar_7264_pu.csv)

New Loadshape.res_kw_6607_pu npts= 35040 interval=0.25 mult = (file=../../../../../profiles/res_kw_6607_pu.csv) qmult = (file=../../../../../profiles/res_kvar_6607_pu.csv)

New Loadshape.res_kw_3954_pu npts= 35040 interval=0.25 mult = (file=../../../../../profiles/res_kw_3954_pu.csv) qmult = (file=../../../../../profiles/res_kvar_3954_pu.csv)

New Loadshape.res_kw_12305_pu npts= 35040 interval=0.25 mult = (file=../../../../../profiles/res_kw_12305_pu.csv) qmult = (file=../../../../../profiles/res_kvar_12305_pu.csv)

New Loadshape.res_kw_5494_pu npts= 35040 interval=0.25 mult = (file=../../../../../profiles/res_kw_5494_pu.csv) qmult = (file=../../../../../profiles/res_kvar_5494_pu.csv)

New Loadshape.res_kw_10071_pu npts= 35040 interval=0.25 mult = (file=../../../../../profiles/res_kw_10071_pu.csv) qmult = (file=../../../../../profiles/res_kvar_10071_pu.csv)

New Loadshape.res_kw_5297_pu npts= 35040 interval=0.25 mult = (file=../../../../../profiles/res_kw_5297_pu.csv) qmult = (file=../../../../../profiles/res_kvar_5297_pu.csv)

New Loadshape.res_kw_13931_pu npts= 35040 interval=0.25 mult = (file=../../../../../profiles/res_kw_13931_pu.csv) qmult = (file=../../../../../profiles/res_kvar_13931_pu.csv)

New Loadshape.res_kw_6051_pu npts= 35040 interval=0.25 mult = (file=../../../../../profiles/res_kw_6051_pu.csv) qmult = (file=../../../../../profiles/res_kvar_6051_pu.csv)

New Loadshape.res_kw_9331_pu npts= 35040 interval=0.25 mult = (file=../../../../../profiles/res_kw_9331_pu.csv) qmult = (file=../../../../../profiles/res_kvar_9331_pu.csv)

New Loadshape.res_kw_10231_pu npts= 35040 interval=0.25 mult = (file=../../../../../profiles/res_kw_10231_pu.csv) qmult = (file=../../../../../profiles/res_kvar_10231_pu.csv)

New Loadshape.res_kw_3262_pu npts= 35040 interval=0.25 mult = (file=../../../../../profiles/res_kw_3262_pu.csv) qmult = (file=../../../../../profiles/res_kvar_3262_pu.csv)

New Loadshape.res_kw_9871_pu npts= 35040 interval=0.25 mult = (file=../../../../../profiles/res_kw_9871_pu.csv) qmult = (file=../../../../../profiles/res_kvar_9871_pu.csv)

New Loadshape.res_kw_5241_pu npts= 35040 interval=0.25 mult = (file=../../../../../profiles/res_kw_5241_pu.csv) qmult = (file=../../../../../profiles/res_kvar_5241_pu.csv)

New Loadshape.res_kw_11041_pu npts= 35040 interval=0.25 mult = (file=../../../../../profiles/res_kw_11041_pu.csv) qmult = (file=../../../../../profiles/res_kvar_11041_pu.csv)

New Loadshape.res_kw_6389_pu npts= 35040 interval=0.25 mult = (file=../../../../../profiles/res_kw_6389_pu.csv) qmult = (file=../../../../../profiles/res_kvar_6389_pu.csv)

New Loadshape.res_kw_239_pu npts= 35040 interval=0.25 mult = (file=../../../../../profiles/res_kw_239_pu.csv) qmult = (file=../../../../../profiles/res_kvar_239_pu.csv)

New Loadshape.res_kw_15158_pu npts= 35040 interval=0.25 mult = (file=../../../../../profiles/res_kw_15158_pu.csv) qmult = (file=../../../../../profiles/res_kvar_15158_pu.csv)

New Loadshape.res_kw_14894_pu npts= 35040 interval=0.25 mult = (file=../../../../../profiles/res_kw_14894_pu.csv) qmult = (file=../../../../../profiles/res_kvar_14894_pu.csv)

New Loadshape.res_kw_10555_pu npts= 35040 interval=0.25 mult = (file=../../../../../profiles/res_kw_10555_pu.csv) qmult = (file=../../../../../profiles/res_kvar_10555_pu.csv)

New Loadshape.res_kw_12911_pu npts= 35040 interval=0.25 mult = (file=../../../../../profiles/res_kw_12911_pu.csv) qmult = (file=../../../../../profiles/res_kvar_12911_pu.csv)

New Loadshape.res_kw_10838_pu npts= 35040 interval=0.25 mult = (file=../../../../../profiles/res_kw_10838_pu.csv) qmult = (file=../../../../../profiles/res_kvar_10838_pu.csv)

New Loadshape.res_kw_7319_pu npts= 35040 interval=0.25 mult = (file=../../../../../profiles/res_kw_7319_pu.csv) qmult = (file=../../../../../profiles/res_kvar_7319_pu.csv)

New Loadshape.res_kw_8118_pu npts= 35040 interval=0.25 mult = (file=../../../../../profiles/res_kw_8118_pu.csv) qmult = (file=../../../../../profiles/res_kvar_8118_pu.csv)

New Loadshape.res_kw_8121_pu npts= 35040 interval=0.25 mult = (file=../../../../../profiles/res_kw_8121_pu.csv) qmult = (file=../../../../../profiles/res_kvar_8121_pu.csv)

New Loadshape.res_kw_839_pu npts= 35040 interval=0.25 mult = (file=../../../../../profiles/res_kw_839_pu.csv) qmult = (file=../../../../../profiles/res_kvar_839_pu.csv)

New Loadshape.res_kw_14093_pu npts= 35040 interval=0.25 mult = (file=../../../../../profiles/res_kw_14093_pu.csv) qmult = (file=../../../../../profiles/res_kvar_14093_pu.csv)

New Loadshape.res_kw_7717_pu npts= 35040 interval=0.25 mult = (file=../../../../../profiles/res_kw_7717_pu.csv) qmult = (file=../../../../../profiles/res_kvar_7717_pu.csv)

New Loadshape.res_kw_3061_pu npts= 35040 interval=0.25 mult = (file=../../../../../profiles/res_kw_3061_pu.csv) qmult = (file=../../../../../profiles/res_kvar_3061_pu.csv)

New Loadshape.res_kw_6308_pu npts= 35040 interval=0.25 mult = (file=../../../../../profiles/res_kw_6308_pu.csv) qmult = (file=../../../../../profiles/res_kvar_6308_pu.csv)

New Loadshape.res_kw_7838_pu npts= 35040 interval=0.25 mult = (file=../../../../../profiles/res_kw_7838_pu.csv) qmult = (file=../../../../../profiles/res_kvar_7838_pu.csv)

New Loadshape.res_kw_8239_pu npts= 35040 interval=0.25 mult = (file=../../../../../profiles/res_kw_8239_pu.csv) qmult = (file=../../../../../profiles/res_kvar_8239_pu.csv)

New Loadshape.res_kw_14160_pu npts= 35040 interval=0.25 mult = (file=../../../../../profiles/res_kw_14160_pu.csv) qmult = (file=../../../../../profiles/res_kvar_14160_pu.csv)

New Loadshape.res_kw_960_pu npts= 35040 interval=0.25 mult = (file=../../../../../profiles/res_kw_960_pu.csv) qmult = (file=../../../../../profiles/res_kvar_960_pu.csv)

New Loadshape.res_kw_11563_pu npts= 35040 interval=0.25 mult = (file=../../../../../profiles/res_kw_11563_pu.csv) qmult = (file=../../../../../profiles/res_kvar_11563_pu.csv)

New Loadshape.res_kw_1476_pu npts= 35040 interval=0.25 mult = (file=../../../../../profiles/res_kw_1476_pu.csv) qmult = (file=../../../../../profiles/res_kvar_1476_pu.csv)

New Loadshape.res_kw_4922_pu npts= 35040 interval=0.25 mult = (file=../../../../../profiles/res_kw_4922_pu.csv) qmult = (file=../../../../../profiles/res_kvar_4922_pu.csv)

New Loadshape.res_kw_7659_pu npts= 35040 interval=0.25 mult = (file=../../../../../profiles/res_kw_7659_pu.csv) qmult = (file=../../../../../profiles/res_kvar_7659_pu.csv)

New Loadshape.res_kw_13866_pu npts= 35040 interval=0.25 mult = (file=../../../../../profiles/res_kw_13866_pu.csv) qmult = (file=../../../../../profiles/res_kvar_13866_pu.csv)

New Loadshape.res_kw_4882_pu npts= 35040 interval=0.25 mult = (file=../../../../../profiles/res_kw_4882_pu.csv) qmult = (file=../../../../../profiles/res_kvar_4882_pu.csv)

New Loadshape.res_kw_11186_pu npts= 35040 interval=0.25 mult = (file=../../../../../profiles/res_kw_11186_pu.csv) qmult = (file=../../../../../profiles/res_kvar_11186_pu.csv)

New Loadshape.res_kw_6021_pu npts= 35040 interval=0.25 mult = (file=../../../../../profiles/res_kw_6021_pu.csv) qmult = (file=../../../../../profiles/res_kvar_6021_pu.csv)

New Loadshape.res_kw_7445_pu npts= 35040 interval=0.25 mult = (file=../../../../../profiles/res_kw_7445_pu.csv) qmult = (file=../../../../../profiles/res_kvar_7445_pu.csv)

New Loadshape.res_kw_938_pu npts= 35040 interval=0.25 mult = (file=../../../../../profiles/res_kw_938_pu.csv) qmult = (file=../../../../../profiles/res_kvar_938_pu.csv)

New Loadshape.res_kw_14077_pu npts= 35040 interval=0.25 mult = (file=../../../../../profiles/res_kw_14077_pu.csv) qmult = (file=../../../../../profiles/res_kvar_14077_pu.csv)

New Loadshape.res_kw_1769_pu npts= 35040 interval=0.25 mult = (file=../../../../../profiles/res_kw_1769_pu.csv) qmult = (file=../../../../../profiles/res_kvar_1769_pu.csv)

New Loadshape.res_kw_10938_pu npts= 35040 interval=0.25 mult = (file=../../../../../profiles/res_kw_10938_pu.csv) qmult = (file=../../../../../profiles/res_kvar_10938_pu.csv)

New Loadshape.res_kw_5369_pu npts= 35040 interval=0.25 mult = (file=../../../../../profiles/res_kw_5369_pu.csv) qmult = (file=../../../../../profiles/res_kvar_5369_pu.csv)

New Loadshape.res_kw_3038_pu npts= 35040 interval=0.25 mult = (file=../../../../../profiles/res_kw_3038_pu.csv) qmult = (file=../../../../../profiles/res_kvar_3038_pu.csv)

New Loadshape.res_kw_13532_pu npts= 35040 interval=0.25 mult = (file=../../../../../profiles/res_kw_13532_pu.csv) qmult = (file=../../../../../profiles/res_kvar_13532_pu.csv)

New Loadshape.res_kw_13258_pu npts= 35040 interval=0.25 mult = (file=../../../../../profiles/res_kw_13258_pu.csv) qmult = (file=../../../../../profiles/res_kvar_13258_pu.csv)

New Loadshape.res_kw_7998_pu npts= 35040 interval=0.25 mult = (file=../../../../../profiles/res_kw_7998_pu.csv) qmult = (file=../../../../../profiles/res_kvar_7998_pu.csv)

New Loadshape.res_kw_2514_pu npts= 35040 interval=0.25 mult = (file=../../../../../profiles/res_kw_2514_pu.csv) qmult = (file=../../../../../profiles/res_kvar_2514_pu.csv)

New Loadshape.res_kw_483_pu npts= 35040 interval=0.25 mult = (file=../../../../../profiles/res_kw_483_pu.csv) qmult = (file=../../../../../profiles/res_kvar_483_pu.csv)

New Loadshape.res_kw_822_pu npts= 35040 interval=0.25 mult = (file=../../../../../profiles/res_kw_822_pu.csv) qmult = (file=../../../../../profiles/res_kvar_822_pu.csv)

New Loadshape.res_kw_1509_pu npts= 35040 interval=0.25 mult = (file=../../../../../profiles/res_kw_1509_pu.csv) qmult = (file=../../../../../profiles/res_kvar_1509_pu.csv)

New Loadshape.res_kw_3707_pu npts= 35040 interval=0.25 mult = (file=../../../../../profiles/res_kw_3707_pu.csv) qmult = (file=../../../../../profiles/res_kvar_3707_pu.csv)

New Loadshape.res_kw_5797_pu npts= 35040 interval=0.25 mult = (file=../../../../../profiles/res_kw_5797_pu.csv) qmult = (file=../../../../../profiles/res_kvar_5797_pu.csv)

New Loadshape.res_kw_1949_pu npts= 35040 interval=0.25 mult = (file=../../../../../profiles/res_kw_1949_pu.csv) qmult = (file=../../../../../profiles/res_kvar_1949_pu.csv)

New Loadshape.res_kw_200_pu npts= 35040 interval=0.25 mult = (file=../../../../../profiles/res_kw_200_pu.csv) qmult = (file=../../../../../profiles/res_kvar_200_pu.csv)

New Loadshape.res_kw_6975_pu npts= 35040 interval=0.25 mult = (file=../../../../../profiles/res_kw_6975_pu.csv) qmult = (file=../../../../../profiles/res_kvar_6975_pu.csv)

New Loadshape.res_kw_2882_pu npts= 35040 interval=0.25 mult = (file=../../../../../profiles/res_kw_2882_pu.csv) qmult = (file=../../../../../profiles/res_kvar_2882_pu.csv)

New Loadshape.res_kw_12445_pu npts= 35040 interval=0.25 mult = (file=../../../../../profiles/res_kw_12445_pu.csv) qmult = (file=../../../../../profiles/res_kvar_12445_pu.csv)

New Loadshape.res_kw_5830_pu npts= 35040 interval=0.25 mult = (file=../../../../../profiles/res_kw_5830_pu.csv) qmult = (file=../../../../../profiles/res_kvar_5830_pu.csv)

New Loadshape.res_kw_6196_pu npts= 35040 interval=0.25 mult = (file=../../../../../profiles/res_kw_6196_pu.csv) qmult = (file=../../../../../profiles/res_kvar_6196_pu.csv)

New Loadshape.res_kw_13015_pu npts= 35040 interval=0.25 mult = (file=../../../../../profiles/res_kw_13015_pu.csv) qmult = (file=../../../../../profiles/res_kvar_13015_pu.csv)

New Loadshape.res_kw_6262_pu npts= 35040 interval=0.25 mult = (file=../../../../../profiles/res_kw_6262_pu.csv) qmult = (file=../../../../../profiles/res_kvar_6262_pu.csv)

New Loadshape.res_kw_3384_pu npts= 35040 interval=0.25 mult = (file=../../../../../profiles/res_kw_3384_pu.csv) qmult = (file=../../../../../profiles/res_kvar_3384_pu.csv)

New Loadshape.res_kw_3355_pu npts= 35040 interval=0.25 mult = (file=../../../../../profiles/res_kw_3355_pu.csv) qmult = (file=../../../../../profiles/res_kvar_3355_pu.csv)

New Loadshape.res_kw_5722_pu npts= 35040 interval=0.25 mult = (file=../../../../../profiles/res_kw_5722_pu.csv) qmult = (file=../../../../../profiles/res_kvar_5722_pu.csv)

New Loadshape.res_kw_7591_pu npts= 35040 interval=0.25 mult = (file=../../../../../profiles/res_kw_7591_pu.csv) qmult = (file=../../../../../profiles/res_kvar_7591_pu.csv)

New Loadshape.res_kw_7785_pu npts= 35040 interval=0.25 mult = (file=../../../../../profiles/res_kw_7785_pu.csv) qmult = (file=../../../../../profiles/res_kvar_7785_pu.csv)

New Loadshape.res_kw_4450_pu npts= 35040 interval=0.25 mult = (file=../../../../../profiles/res_kw_4450_pu.csv) qmult = (file=../../../../../profiles/res_kvar_4450_pu.csv)

New Loadshape.res_kw_1389_pu npts= 35040 interval=0.25 mult = (file=../../../../../profiles/res_kw_1389_pu.csv) qmult = (file=../../../../../profiles/res_kvar_1389_pu.csv)

New Loadshape.res_kw_7001_pu npts= 35040 interval=0.25 mult = (file=../../../../../profiles/res_kw_7001_pu.csv) qmult = (file=../../../../../profiles/res_kvar_7001_pu.csv)

New Loadshape.res_kw_7847_pu npts= 35040 interval=0.25 mult = (file=../../../../../profiles/res_kw_7847_pu.csv) qmult = (file=../../../../../profiles/res_kvar_7847_pu.csv)

New Loadshape.res_kw_8073_pu npts= 35040 interval=0.25 mult = (file=../../../../../profiles/res_kw_8073_pu.csv) qmult = (file=../../../../../profiles/res_kvar_8073_pu.csv)

New Loadshape.res_kw_4108_pu npts= 35040 interval=0.25 mult = (file=../../../../../profiles/res_kw_4108_pu.csv) qmult = (file=../../../../../profiles/res_kvar_4108_pu.csv)

New Loadshape.res_kw_5183_pu npts= 35040 interval=0.25 mult = (file=../../../../../profiles/res_kw_5183_pu.csv) qmult = (file=../../../../../profiles/res_kvar_5183_pu.csv)

New Loadshape.res_kw_9454_pu npts= 35040 interval=0.25 mult = (file=../../../../../profiles/res_kw_9454_pu.csv) qmult = (file=../../../../../profiles/res_kvar_9454_pu.csv)

New Loadshape.res_kw_2868_pu npts= 35040 interval=0.25 mult = (file=../../../../../profiles/res_kw_2868_pu.csv) qmult = (file=../../../../../profiles/res_kvar_2868_pu.csv)

New Loadshape.res_kw_10294_pu npts= 35040 interval=0.25 mult = (file=../../../../../profiles/res_kw_10294_pu.csv) qmult = (file=../../../../../profiles/res_kvar_10294_pu.csv)

New Loadshape.res_kw_8450_pu npts= 35040 interval=0.25 mult = (file=../../../../../profiles/res_kw_8450_pu.csv) qmult = (file=../../../../../profiles/res_kvar_8450_pu.csv)
