New Line.l(r:p17udt1178lv-p17ulv4981) Units=km Length=0.00497562 bus1=p17udt1178lv.1.2 bus2=p17ulv4981.1.2 switch=n enabled=y phases=2 Linecode=1P_UG_AL_1/0_Brenau_2

New Line.l(r:p17udt1178lv-p17ulv5009) Units=km Length=0.00275951 bus1=p17udt1178lv.1.2 bus2=p17ulv5009.1.2 switch=n enabled=y phases=2 Linecode=1P_UG_AL_1/0_Brenau_2

New Line.l(r:p17udm5025-p17ulv4948) Units=km Length=0.00554314 bus1=p17udm5025.1.2 bus2=p17ulv4948.1.2 switch=n enabled=y phases=2 Linecode=1P_UG_AL_1/0_Brenau_2

New Line.l(r:p17udm5031-p17ulv5075) Units=km Length=0.00476379 bus1=p17udm5031.1.2 bus2=p17ulv5075.1.2 switch=n enabled=y phases=2 Linecode=1P_UG_AL_1/0_Brenau_2

New Line.l(r:p17udm5024-p17ulv4439) Units=km Length=0.0071020300000000005 bus1=p17udm5024.1.2 bus2=p17ulv4439.1.2 switch=n enabled=y phases=2 Linecode=1P_UG_AL_1/0_Brenau_2

New Line.l(r:p17udm5024-p17udm5031) Units=km Length=0.0181332 bus1=p17udm5031.1.2 bus2=p17udm5024.1.2 switch=n enabled=y phases=2 Linecode=1P_UG_AL_1/0_Brenau_2

New Line.l(r:p17udm5032-p17ulv5106) Units=km Length=0.00656601 bus1=p17udm5032.1.2 bus2=p17ulv5106.1.2 switch=n enabled=y phases=2 Linecode=1P_UG_AL_1/0_Brenau_2

New Line.l(r:p17udm5033-p17ulv5128) Units=km Length=0.0074497 bus1=p17udm5033.1.2 bus2=p17ulv5128.1.2 switch=n enabled=y phases=2 Linecode=1P_UG_AL_1/0_Brenau_2

New Line.l(r:p17udm5032-p17udm5033) Units=km Length=0.00991424 bus1=p17udm5032.1.2 bus2=p17udm5033.1.2 switch=n enabled=y phases=2 Linecode=1P_UG_AL_1/0_Brenau_2

New Line.l(r:p17udm5031-p17udm5032) Units=km Length=0.012862700000000001 bus1=p17udm5031.1.2 bus2=p17udm5032.1.2 switch=n enabled=y phases=2 Linecode=1P_UG_AL_1/0_Brenau_2

New Line.l(r:p17udm5025-p17udm5031) Units=km Length=0.00975337 bus1=p17udm5025.1.2 bus2=p17udm5031.1.2 switch=n enabled=y phases=2 Linecode=1P_UG_AL_1/0_Brenau_2

New Line.l(r:p17udm5025-p17udt1178lv) Units=km Length=0.0177795 bus1=p17udt1178lv.1.2 bus2=p17udm5025.1.2 switch=n enabled=y phases=2 Linecode=1P_UG_AL_2/0_Converse_2

New Line.l(r:p17udm5026-p17ulv4967) Units=km Length=0.00247504 bus1=p17udm5026.1.2 bus2=p17ulv4967.1.2 switch=n enabled=y phases=2 Linecode=1P_UG_AL_1/0_Brenau_2

New Line.l(r:p17udm5030-p17ulv5024) Units=km Length=0.00627443 bus1=p17udm5030.1.2 bus2=p17ulv5024.1.2 switch=n enabled=y phases=2 Linecode=1P_UG_AL_1/0_Brenau_2

New Line.l(r:p17udm5026-p17udm5030) Units=km Length=0.018783 bus1=p17udm5026.1.2 bus2=p17udm5030.1.2 switch=n enabled=y phases=2 Linecode=1P_UG_AL_1/0_Brenau_2

New Line.l(r:p17udm5026-p17udt1178lv) Units=km Length=0.0160699 bus1=p17udt1178lv.1.2 bus2=p17udm5026.1.2 switch=n enabled=y phases=2 Linecode=1P_UG_AL_1/0_Brenau_2

New Line.l(r:p17udm5034-p17ulv5182) Units=km Length=0.00416703 bus1=p17udm5034.1.2 bus2=p17ulv5182.1.2 switch=n enabled=y phases=2 Linecode=1P_UG_AL_1/0_Brenau_2

New Line.l(r:p17udm5034-p17ulv5205) Units=km Length=0.00495262 bus1=p17udm5034.1.2 bus2=p17ulv5205.1.2 switch=n enabled=y phases=2 Linecode=1P_UG_AL_1/0_Brenau_2

New Line.l(r:p17udm5028-p17ulv4985) Units=km Length=0.00748666 bus1=p17udm5028.1.2 bus2=p17ulv4985.1.2 switch=n enabled=y phases=2 Linecode=1P_UG_AL_1/0_Brenau_2

New Line.l(r:p17udm5028-p17udm5034) Units=km Length=0.0097833 bus1=p17udm5034.1.2 bus2=p17udm5028.1.2 switch=n enabled=y phases=2 Linecode=1P_UG_AL_1/0_Brenau_2

New Line.l(r:p17udm5034-p17udt1178lv) Units=km Length=0.025397700000000002 bus1=p17udt1178lv.1.2 bus2=p17udm5034.1.2 switch=n enabled=y phases=2 Linecode=1P_UG_AL_1/0_Brenau_2

New Line.l(r:p17udt1291lv-p17ulv4942) Units=km Length=0.0029916200000000004 bus1=p17udt1291lv.1.2 bus2=p17ulv4942.1.2 switch=n enabled=y phases=2 Linecode=1P_UG_AL_1/0_Brenau_2

New Line.l(r:p17udt1291lv-p17ulv9216) Units=km Length=0.00892185 bus1=p17udt1291lv.1.2 bus2=p17ulv9216.1.2 switch=n enabled=y phases=2 Linecode=1P_UG_AL_1/0_Brenau_2

New Line.l(r:p17udm5390-p17ulv9190) Units=km Length=0.00835749 bus1=p17udm5390.1.2 bus2=p17ulv9190.1.2 switch=n enabled=y phases=2 Linecode=1P_OH_AL_2/0_Rucina_2

New Line.l(r:p17udm5389-p17ulv5883) Units=km Length=0.014498000000000002 bus1=p17udm5389.1.2 bus2=p17ulv5883.1.2 switch=n enabled=y phases=2 Linecode=1P_OH_AL_2/0_Rucina_2

New Line.l(r:p17udm5393-p17ulv9296) Units=km Length=0.0245218 bus1=p17udm5393.1.2 bus2=p17ulv9296.1.2 switch=n enabled=y phases=2 Linecode=1P_OH_AL_2/0_Rucina_2

New Line.l(r:p17udm5386-p17ulv4980) Units=km Length=0.0270724 bus1=p17udm5386.1.2 bus2=p17ulv4980.1.2 switch=n enabled=y phases=2 Linecode=1P_OH_AL_4/0_Zuzara_2

New Line.l(r:p17udm5386-p17udm5393) Units=km Length=0.0184465 bus1=p17udm5393.1.2 bus2=p17udm5386.1.2 switch=n enabled=y phases=2 Linecode=1P_OH_AL_2/0_Rucina_2

New Line.l(r:p17udm5389-p17udm5393) Units=km Length=0.0184468 bus1=p17udm5389.1.2 bus2=p17udm5393.1.2 switch=n enabled=y phases=2 Linecode=1P_OH_AL_2/0_Rucina_2

New Line.l(r:p17udm5389-p17udm5390) Units=km Length=0.013827 bus1=p17udm5390.1.2 bus2=p17udm5389.1.2 switch=n enabled=y phases=2 Linecode=1P_OH_AL_2/0_Rucina_2

New Line.l(r:p17udm5390-p17udt1291lv) Units=km Length=0.0231237 bus1=p17udt1291lv.1.2 bus2=p17udm5390.1.2 switch=n enabled=y phases=2 Linecode=1P_OH_AL_2/0_Rucina_2

New Line.l(r:p17udm5392-p17ulv9248) Units=km Length=0.00255163 bus1=p17udm5392.1.2 bus2=p17ulv9248.1.2 switch=n enabled=y phases=2 Linecode=1P_UG_AL_1/0_Brenau_2

New Line.l(r:p17udm5387-p17ulv5183) Units=km Length=0.00446267 bus1=p17udm5387.1.2 bus2=p17ulv5183.1.2 switch=n enabled=y phases=2 Linecode=1P_UG_AL_1/0_Brenau_2

New Line.l(r:p17udm5387-p17ulv5201) Units=km Length=0.0367103 bus1=p17udm5387.1.2 bus2=p17ulv5201.1.2 switch=n enabled=y phases=2 Linecode=1P_UG_AL_1/0_Brenau_2

New Line.l(r:p17udm5394-p17ulv9303) Units=km Length=0.025147600000000003 bus1=p17udm5394.1.2 bus2=p17ulv9303.1.2 switch=n enabled=y phases=2 Linecode=1P_UG_AL_1/0_Brenau_2

New Line.l(r:p17udm5387-p17udm5394) Units=km Length=0.0291084 bus1=p17udm5387.1.2 bus2=p17udm5394.1.2 switch=n enabled=y phases=2 Linecode=1P_UG_AL_1/0_Brenau_2

New Line.l(r:p17udm5387-p17udm5392) Units=km Length=0.0093104 bus1=p17udm5392.1.2 bus2=p17udm5387.1.2 switch=n enabled=y phases=2 Linecode=1P_UG_AL_1/0_Brenau_2

New Line.l(r:p17udm5392-p17udt1291lv) Units=km Length=0.00929995 bus1=p17udt1291lv.1.2 bus2=p17udm5392.1.2 switch=n enabled=y phases=2 Linecode=1P_UG_AL_2/0_Converse_2

New Line.l(r:p17udt1293lv-p17ulv5051) Units=km Length=0.006738980000000001 bus1=p17udt1293lv.1.2 bus2=p17ulv5051.1.2 switch=n enabled=y phases=2 Linecode=1P_OH_AL_2/0_Rucina_2

New Line.l(r:p17udt1293lv-p17ulv5096) Units=km Length=0.00746006 bus1=p17udt1293lv.1.2 bus2=p17ulv5096.1.2 switch=n enabled=y phases=2 Linecode=1P_OH_AL_2/0_Rucina_2

New Line.l(r:p17udt1293lv-p17ulv5149) Units=km Length=0.020122700000000004 bus1=p17udt1293lv.1.2 bus2=p17ulv5149.1.2 switch=n enabled=y phases=2 Linecode=1P_OH_AL_2/0_Rucina_2

New Line.l(r:p17udm5406-p17ulv5156) Units=km Length=0.00538967 bus1=p17udm5406.1.2 bus2=p17ulv5156.1.2 switch=n enabled=y phases=2 Linecode=1P_OH_AL_2/0_Rucina_2

New Line.l(r:p17udm5404-p17ulv5115) Units=km Length=0.00505223 bus1=p17udm5404.1.2 bus2=p17ulv5115.1.2 switch=n enabled=y phases=2 Linecode=1P_OH_AL_2/0_Rucina_2

New Line.l(r:p17udm5400-p17ulv4944) Units=km Length=0.00709056 bus1=p17udm5400.1.2 bus2=p17ulv4944.1.2 switch=n enabled=y phases=2 Linecode=1P_OH_AL_2/0_Rucina_2

New Line.l(r:p17udm5400-p17udm5404) Units=km Length=0.018860100000000005 bus1=p17udm5404.1.2 bus2=p17udm5400.1.2 switch=n enabled=y phases=2 Linecode=1P_OH_AL_2/0_Rucina_2

New Line.l(r:p17udm5404-p17udm5406) Units=km Length=0.018869600000000004 bus1=p17udm5406.1.2 bus2=p17udm5404.1.2 switch=n enabled=y phases=2 Linecode=1P_OH_AL_2/0_Rucina_2

New Line.l(r:p17udm5406-p17udt1293lv) Units=km Length=0.018869600000000004 bus1=p17udt1293lv.1.2 bus2=p17udm5406.1.2 switch=n enabled=y phases=2 Linecode=1P_OH_AL_2/0_Rucina_2

New Line.l(r:p17udm5407-p17ulv5170) Units=km Length=0.00785012 bus1=p17udm5407.1.2 bus2=p17ulv5170.1.2 switch=n enabled=y phases=2 Linecode=1P_OH_AL_2/0_Rucina_2

New Line.l(r:p17udm5402-p17ulv5089) Units=km Length=0.00712253 bus1=p17udm5402.1.2 bus2=p17ulv5089.1.2 switch=n enabled=y phases=2 Linecode=1P_OH_AL_2/0_Rucina_2

New Line.l(r:p17udm5408-p17ulv9192) Units=km Length=0.00833933 bus1=p17udm5408.1.2 bus2=p17ulv9192.1.2 switch=n enabled=y phases=2 Linecode=1P_OH_AL_2/0_Rucina_2

New Line.l(r:p17udm5402-p17udm5408) Units=km Length=0.0175201 bus1=p17udm5402.1.2 bus2=p17udm5408.1.2 switch=n enabled=y phases=2 Linecode=1P_OH_AL_2/0_Rucina_2

New Line.l(r:p17udm5402-p17udm5407) Units=km Length=0.0175301 bus1=p17udm5407.1.2 bus2=p17udm5402.1.2 switch=n enabled=y phases=2 Linecode=1P_OH_AL_2/0_Rucina_2

New Line.l(r:p17udm5407-p17udt1293lv) Units=km Length=0.00905902 bus1=p17udt1293lv.1.2 bus2=p17udm5407.1.2 switch=n enabled=y phases=2 Linecode=1P_OH_AL_2/0_Rucina_2

New Line.l(r:p17udt1295lv-p17ulv4946) Units=km Length=0.0118682 bus1=p17udt1295lv.1.2 bus2=p17ulv4946.1.2 switch=n enabled=y phases=2 Linecode=1P_UG_AL_1/0_Brenau_2

New Line.l(r:p17udm5416-p17ulv4951) Units=km Length=0.0145561 bus1=p17udm5416.1.2 bus2=p17ulv4951.1.2 switch=n enabled=y phases=2 Linecode=1P_UG_AL_1/0_Brenau_2

New Line.l(r:p17udm5421-p17ulv5059) Units=km Length=0.00669242 bus1=p17udm5421.1.2 bus2=p17ulv5059.1.2 switch=n enabled=y phases=2 Linecode=1P_UG_AL_1/0_Brenau_2

New Line.l(r:p17udm5421-p17ulv5167) Units=km Length=0.00775861 bus1=p17udm5421.1.2 bus2=p17ulv5167.1.2 switch=n enabled=y phases=2 Linecode=1P_UG_AL_1/0_Brenau_2

New Line.l(r:p17udm5416-p17udm5421) Units=km Length=0.0159291 bus1=p17udm5416.1.2 bus2=p17udm5421.1.2 switch=n enabled=y phases=2 Linecode=1P_UG_AL_1/0_Brenau_2

New Line.l(r:p17udm5416-p17udt1295lv) Units=km Length=0.0078475 bus1=p17udt1295lv.1.2 bus2=p17udm5416.1.2 switch=n enabled=y phases=2 Linecode=1P_UG_AL_1/0_Brenau_2

New Line.l(r:p17udm5418-p17ulv4958) Units=km Length=0.0123958 bus1=p17udm5418.1.2 bus2=p17ulv4958.1.2 switch=n enabled=y phases=2 Linecode=1P_OH_AL_2/0_Rucina_2

New Line.l(r:p17udm5418-p17ulv5012) Units=km Length=0.00456724 bus1=p17udm5418.1.2 bus2=p17ulv5012.1.2 switch=n enabled=y phases=2 Linecode=1P_OH_AL_2/0_Rucina_2

New Line.l(r:p17udm5417-p17ulv4957) Units=km Length=0.0108836 bus1=p17udm5417.1.2 bus2=p17ulv4957.1.2 switch=n enabled=y phases=2 Linecode=1P_OH_AL_2/0_Rucina_2

New Line.l(r:p17udm5417-p17ulv5047) Units=km Length=0.00398152 bus1=p17udm5417.1.2 bus2=p17ulv5047.1.2 switch=n enabled=y phases=2 Linecode=1P_OH_AL_4_Periwinkle_2

New Line.l(r:p17udm5417-p17udm5418) Units=km Length=0.0177342 bus1=p17udm5418.1.2 bus2=p17udm5417.1.2 switch=n enabled=y phases=2 Linecode=1P_OH_AL_2/0_Rucina_2

New Line.l(r:p17udm5418-p17udt1295lv) Units=km Length=0.0177246 bus1=p17udt1295lv.1.2 bus2=p17udm5418.1.2 switch=n enabled=y phases=2 Linecode=1P_OH_AL_2/0_Rucina_2

New Line.l(r:p17udt1296lv-p17ulv4947) Units=km Length=0.008530700000000002 bus1=p17udt1296lv.1.2 bus2=p17ulv4947.1.2 switch=n enabled=y phases=2 Linecode=1P_OH_AL_2/0_Rucina_2

New Line.l(r:p17udt1296lv-p17ulv5137) Units=km Length=0.010327 bus1=p17udt1296lv.1.2 bus2=p17ulv5137.1.2 switch=n enabled=y phases=2 Linecode=1P_OH_AL_2/0_Rucina_2

New Line.l(r:p17udt1302lv-p17ulv4994) Units=km Length=0.008789360000000001 bus1=p17udt1302lv.1.2 bus2=p17ulv4994.1.2 switch=n enabled=y phases=2 Linecode=1P_OH_AL_2/0_Rucina_2

New Line.l(r:p17udt1302lv-p17ulv5026) Units=km Length=0.00512001 bus1=p17udt1302lv.1.2 bus2=p17ulv5026.1.2 switch=n enabled=y phases=2 Linecode=1P_OH_AL_2/0_Rucina_2

New Line.l(r:p17udm5455-p17ulv4961) Units=km Length=0.0121127 bus1=p17udm5455.1.2 bus2=p17ulv4961.1.2 switch=n enabled=y phases=2 Linecode=1P_OH_AL_2/0_Rucina_2

New Line.l(r:p17udm5461-p17ulv9317) Units=km Length=0.006890610000000001 bus1=p17udm5461.1.2 bus2=p17ulv9317.1.2 switch=n enabled=y phases=2 Linecode=1P_OH_AL_2/0_Rucina_2

New Line.l(r:p17udm5455-p17udm5461) Units=km Length=0.0144789 bus1=p17udm5455.1.2 bus2=p17udm5461.1.2 switch=n enabled=y phases=2 Linecode=1P_OH_AL_2/0_Rucina_2

New Line.l(r:p17udm5455-p17udt1302lv) Units=km Length=0.0172104 bus1=p17udt1302lv.1.2 bus2=p17udm5455.1.2 switch=n enabled=y phases=2 Linecode=1P_OH_AL_2/0_Rucina_2

New Line.l(r:p17udm5458-p17ulv5107) Units=km Length=0.00652746 bus1=p17udm5458.1.2 bus2=p17ulv5107.1.2 switch=n enabled=y phases=2 Linecode=1P_OH_AL_2/0_Rucina_2

New Line.l(r:p17udm5458-p17ulv5203) Units=km Length=0.00543111 bus1=p17udm5458.1.2 bus2=p17ulv5203.1.2 switch=n enabled=y phases=2 Linecode=1P_OH_AL_2/0_Rucina_2

New Line.l(r:p17udm5460-p17ulv9196) Units=km Length=0.0130164 bus1=p17udm5460.1.2 bus2=p17ulv9196.1.2 switch=n enabled=y phases=2 Linecode=1P_OH_AL_2/0_Rucina_2

New Line.l(r:p17udm5458-p17udm5460) Units=km Length=0.0172104 bus1=p17udm5458.1.2 bus2=p17udm5460.1.2 switch=n enabled=y phases=2 Linecode=1P_OH_AL_2/0_Rucina_2

New Line.l(r:p17udm5458-p17udt1302lv) Units=km Length=0.0172004 bus1=p17udt1302lv.1.2 bus2=p17udm5458.1.2 switch=n enabled=y phases=2 Linecode=1P_OH_AL_2/0_Rucina_2

New Line.l(r:p17udt1305lv-p17ulv5138) Units=km Length=0.00492059 bus1=p17udt1305lv.1.2 bus2=p17ulv5138.1.2 switch=n enabled=y phases=2 Linecode=1P_UG_AL_1/0_Brenau_2

New Line.l(r:p17udt1305lv-p17ulv5142) Units=km Length=0.00574653 bus1=p17udt1305lv.1.2 bus2=p17ulv5142.1.2 switch=n enabled=y phases=2 Linecode=1P_UG_AL_1/0_Brenau_2

New Line.l(r:p17udt1305lv-p17ulv5154) Units=km Length=0.00865014 bus1=p17udt1305lv.1.2 bus2=p17ulv5154.1.2 switch=n enabled=y phases=2 Linecode=1P_UG_AL_1/0_Brenau_2

New Line.l(r:p17udm5473-p17ulv5036) Units=km Length=0.0077056 bus1=p17udm5473.1.2 bus2=p17ulv5036.1.2 switch=n enabled=y phases=2 Linecode=1P_UG_AL_1/0_Brenau_2

New Line.l(r:p17udm5474-p17ulv5038) Units=km Length=0.00533146 bus1=p17udm5474.1.2 bus2=p17ulv5038.1.2 switch=n enabled=y phases=2 Linecode=1P_UG_AL_1/0_Brenau_2

New Line.l(r:p17udm5477-p17ulv5078) Units=km Length=0.00765308 bus1=p17udm5477.1.2 bus2=p17ulv5078.1.2 switch=n enabled=y phases=2 Linecode=1P_UG_AL_1/0_Brenau_2

New Line.l(r:p17udm5480-p17ulv5144) Units=km Length=0.0156762 bus1=p17udm5480.1.2 bus2=p17ulv5144.1.2 switch=n enabled=y phases=2 Linecode=1P_UG_AL_1/0_Brenau_2

New Line.l(r:p17udm5477-p17udm5480) Units=km Length=0.0214258 bus1=p17udm5477.1.2 bus2=p17udm5480.1.2 switch=n enabled=y phases=2 Linecode=1P_UG_AL_1/0_Brenau_2

New Line.l(r:p17udm5474-p17udm5477) Units=km Length=0.00984358 bus1=p17udm5474.1.2 bus2=p17udm5477.1.2 switch=n enabled=y phases=2 Linecode=1P_UG_AL_1/0_Brenau_2

New Line.l(r:p17udm5473-p17udm5474) Units=km Length=0.00983643 bus1=p17udm5473.1.2 bus2=p17udm5474.1.2 switch=n enabled=y phases=2 Linecode=1P_UG_AL_1/0_Brenau_2

New Line.l(r:p17udm5473-p17udt1305lv) Units=km Length=0.00977332 bus1=p17udt1305lv.1.2 bus2=p17udm5473.1.2 switch=n enabled=y phases=2 Linecode=1P_UG_AL_4/0_Sweetbriar_2

New Line.l(r:p17udm5475-p17ulv5040) Units=km Length=0.00505199 bus1=p17udm5475.1.2 bus2=p17ulv5040.1.2 switch=n enabled=y phases=2 Linecode=1P_UG_AL_1/0_Brenau_2

New Line.l(r:p17udm5472-p17ulv4966) Units=km Length=0.0259127 bus1=p17udm5472.1.2 bus2=p17ulv4966.1.2 switch=n enabled=y phases=2 Linecode=1P_UG_AL_1/0_Brenau_2

New Line.l(r:p17udm5472-p17ulv5045) Units=km Length=0.007264 bus1=p17udm5472.1.2 bus2=p17ulv5045.1.2 switch=n enabled=y phases=2 Linecode=1P_UG_AL_1/0_Brenau_2

New Line.l(r:p17udm5482-p17ulv5202) Units=km Length=0.008932020000000002 bus1=p17udm5482.1.2 bus2=p17ulv5202.1.2 switch=n enabled=y phases=2 Linecode=1P_UG_AL_1/0_Brenau_2

New Line.l(r:p17udm5483-p17ulv5212) Units=km Length=0.00708102 bus1=p17udm5483.1.2 bus2=p17ulv5212.1.2 switch=n enabled=y phases=2 Linecode=1P_UG_AL_1/0_Brenau_2

New Line.l(r:p17udm5482-p17udm5483) Units=km Length=0.00977332 bus1=p17udm5482.1.2 bus2=p17udm5483.1.2 switch=n enabled=y phases=2 Linecode=1P_UG_AL_1/0_Brenau_2

New Line.l(r:p17udm5472-p17udm5482) Units=km Length=0.00977332 bus1=p17udm5472.1.2 bus2=p17udm5482.1.2 switch=n enabled=y phases=2 Linecode=1P_UG_AL_1/0_Brenau_2

New Line.l(r:p17udm5472-p17udm5475) Units=km Length=0.0097833 bus1=p17udm5475.1.2 bus2=p17udm5472.1.2 switch=n enabled=y phases=2 Linecode=1P_UG_AL_1/0_Brenau_2

New Line.l(r:p17udm5475-p17udt1305lv) Units=km Length=0.00977332 bus1=p17udt1305lv.1.2 bus2=p17udm5475.1.2 switch=n enabled=y phases=2 Linecode=1P_UG_AL_1/0_Brenau_2

New Line.l(r:p17udm5549-p17ulv5023) Units=km Length=0.0132374 bus1=p17udm5549.1.2 bus2=p17ulv5023.1.2 switch=n enabled=y phases=2 Linecode=1P_UG_AL_1/0_Brenau_2

New Line.l(r:p17udm5550-p17ulv5094) Units=km Length=0.006460420000000001 bus1=p17udm5550.1.2 bus2=p17ulv5094.1.2 switch=n enabled=y phases=2 Linecode=1P_UG_AL_1/0_Brenau_2

New Line.l(r:p17udm5549-p17udm5550) Units=km Length=0.0181335 bus1=p17udm5549.1.2 bus2=p17udm5550.1.2 switch=n enabled=y phases=2 Linecode=1P_UG_AL_1/0_Brenau_2

New Line.l(r:p17udm5549-p17udt1321lv) Units=km Length=0.0422111 bus1=p17udt1321lv.1.2 bus2=p17udm5549.1.2 switch=n enabled=y phases=2 Linecode=1P_UG_AL_1/0_Brenau_2

New Line.l(r:p17udm5551-p17ulv5819) Units=km Length=0.0182655 bus1=p17udm5551.1.2 bus2=p17ulv5819.1.2 switch=n enabled=y phases=2 Linecode=1P_OH_AL_2/0_Rucina_2

New Line.l(r:p17udm5551-p17udt1321lv) Units=km Length=0.0455165 bus1=p17udt1321lv.1.2 bus2=p17udm5551.1.2 switch=n enabled=y phases=2 Linecode=1P_OH_AL_4/0_Zuzara_2

New Line.l(r:p17udm6793-p17ulv6034) Units=km Length=0.00727473 bus1=p17udm6793.1.2 bus2=p17ulv6034.1.2 switch=n enabled=y phases=2 Linecode=1P_OH_AL_2/0_Rucina_2

New Line.l(r:p17udm6793-p17ulv6132) Units=km Length=0.0171577 bus1=p17udm6793.1.2 bus2=p17ulv6132.1.2 switch=n enabled=y phases=2 Linecode=1P_OH_AL_2/0_Rucina_2

New Line.l(r:p17udm6793-p17udt1609lv) Units=km Length=0.0305224 bus1=p17udt1609lv.1.2 bus2=p17udm6793.1.2 switch=n enabled=y phases=2 Linecode=1P_OH_AL_4/0_Zuzara_2

New Line.l(r:p17udm6794-p17ulv6115) Units=km Length=0.0382382 bus1=p17udm6794.1.2 bus2=p17ulv6115.1.2 switch=n enabled=y phases=2 Linecode=1P_OH_AL_4/0_Zuzara_2

New Line.l(r:p17udm6794-p17udt1609lv) Units=km Length=0.049589 bus1=p17udt1609lv.1.2 bus2=p17udm6794.1.2 switch=n enabled=y phases=2 Linecode=1P_OH_AL_4/0_Zuzara_2

New Line.l(r:p17udm6796-p17ulv7920) Units=km Length=0.0038425300000000003 bus1=p17udm6796.1.2 bus2=p17ulv7920.1.2 switch=n enabled=y phases=2 Linecode=1P_OH_AL_4_Periwinkle_2

New Line.l(r:p17udm6797-p17ulv82858) Units=km Length=0.006114 bus1=p17udm6797.1.2 bus2=p17ulv82858.1.2 switch=n enabled=y phases=2 Linecode=1P_OH_AL_2/0_Rucina_2

New Line.l(r:p17udm6796-p17udm6797) Units=km Length=0.0271502 bus1=p17udm6796.1.2 bus2=p17udm6797.1.2 switch=n enabled=y phases=2 Linecode=1P_OH_AL_4/0_Zuzara_2

New Line.l(r:p17udm6796-p17udt1609lv) Units=km Length=0.0727046 bus1=p17udt1609lv.1.2 bus2=p17udm6796.1.2 switch=n enabled=y phases=2 Linecode=1P_OH_AL_4/0_Zuzara_2

New Line.l(r:p17udt1614lv-p17ulv6056) Units=km Length=0.0506387 bus1=p17udt1614lv.1.2 bus2=p17ulv6056.1.2 switch=n enabled=y phases=2 Linecode=1P_OH_AL_4/0_Zuzara_2

New Line.l(r:p17udt1614lv-p17ulv9293) Units=km Length=0.062183 bus1=p17udt1614lv.1.2 bus2=p17ulv9293.1.2 switch=n enabled=y phases=2 Linecode=1P_OH_AL_4/0_Zuzara_2

New Line.l(r:p17udt1711lv-p17ulv6690) Units=km Length=0.00910002 bus1=p17udt1711lv.1.2 bus2=p17ulv6690.1.2 switch=n enabled=y phases=2 Linecode=1P_UG_AL_1/0_Brenau_2

New Line.l(r:p17udm7255-p17ulv6561) Units=km Length=0.0181332 bus1=p17udm7255.1.2 bus2=p17ulv6561.1.2 switch=n enabled=y phases=2 Linecode=1P_UG_AL_1/0_Brenau_2

New Line.l(r:p17udm7255-p17ulv6619) Units=km Length=0.009796990000000002 bus1=p17udm7255.1.2 bus2=p17ulv6619.1.2 switch=n enabled=y phases=2 Linecode=1P_UG_AL_1/0_Brenau_2

New Line.l(r:p17udm7255-p17udt1711lv) Units=km Length=0.00960232 bus1=p17udt1711lv.1.2 bus2=p17udm7255.1.2 switch=n enabled=y phases=2 Linecode=1P_UG_AL_2/0_Converse_2

New Line.l(r:p17udm7256-p17ulv6595) Units=km Length=0.0169492 bus1=p17udm7256.1.2 bus2=p17ulv6595.1.2 switch=n enabled=y phases=2 Linecode=1P_UG_AL_1/0_Brenau_2

New Line.l(r:p17udm7258-p17ulv6638) Units=km Length=0.0163442 bus1=p17udm7258.1.2 bus2=p17ulv6638.1.2 switch=n enabled=y phases=2 Linecode=1P_UG_AL_1/0_Brenau_2

New Line.l(r:p17udm7256-p17udm7258) Units=km Length=0.00960232 bus1=p17udm7256.1.2 bus2=p17udm7258.1.2 switch=n enabled=y phases=2 Linecode=1P_UG_AL_1/0_Brenau_2

New Line.l(r:p17udm7256-p17udt1711lv) Units=km Length=0.00960232 bus1=p17udt1711lv.1.2 bus2=p17udm7256.1.2 switch=n enabled=y phases=2 Linecode=1P_UG_AL_1/0_Brenau_2

New Line.l(r:p17udt1713lv-p17ulv6628) Units=km Length=0.0155773 bus1=p17udt1713lv.1.2 bus2=p17ulv6628.1.2 switch=n enabled=y phases=2 Linecode=1P_UG_AL_1/0_Brenau_2

New Line.l(r:p17udm7269-p17ulv6573) Units=km Length=0.00918054 bus1=p17udm7269.1.2 bus2=p17ulv6573.1.2 switch=n enabled=y phases=2 Linecode=1P_UG_AL_1/0_Brenau_2

New Line.l(r:p17udm7268-p17ulv6565) Units=km Length=0.00960856 bus1=p17udm7268.1.2 bus2=p17ulv6565.1.2 switch=n enabled=y phases=2 Linecode=1P_UG_AL_1/0_Brenau_2

New Line.l(r:p17udm7268-p17ulv6702) Units=km Length=0.018098600000000003 bus1=p17udm7268.1.2 bus2=p17ulv6702.1.2 switch=n enabled=y phases=2 Linecode=1P_UG_AL_1/0_Brenau_2

New Line.l(r:p17udm7277-p17ulv6676) Units=km Length=0.016487 bus1=p17udm7277.1.2 bus2=p17ulv6676.1.2 switch=n enabled=y phases=2 Linecode=1P_UG_AL_1/0_Brenau_2

New Line.l(r:p17udm7270-p17ulv6584) Units=km Length=0.00871989 bus1=p17udm7270.1.2 bus2=p17ulv6584.1.2 switch=n enabled=y phases=2 Linecode=1P_UG_AL_1/0_Brenau_2

New Line.l(r:p17udm7270-p17udm7277) Units=km Length=0.00959859 bus1=p17udm7277.1.2 bus2=p17udm7270.1.2 switch=n enabled=y phases=2 Linecode=1P_UG_AL_1/0_Brenau_2

New Line.l(r:p17udm7268-p17udm7277) Units=km Length=0.00959304 bus1=p17udm7268.1.2 bus2=p17udm7277.1.2 switch=n enabled=y phases=2 Linecode=1P_UG_AL_1/0_Brenau_2

New Line.l(r:p17udm7268-p17udm7269) Units=km Length=0.00960232 bus1=p17udm7269.1.2 bus2=p17udm7268.1.2 switch=n enabled=y phases=2 Linecode=1P_UG_AL_4/0_Sweetbriar_2

New Line.l(r:p17udm7269-p17udt1713lv) Units=km Length=0.00960232 bus1=p17udt1713lv.1.2 bus2=p17udm7269.1.2 switch=n enabled=y phases=2 Linecode=1P_UG_AL_4/0_Sweetbriar_2

New Line.l(r:p17udm7275-p17ulv6660) Units=km Length=0.00901166 bus1=p17udm7275.1.2 bus2=p17ulv6660.1.2 switch=n enabled=y phases=2 Linecode=1P_UG_AL_1/0_Brenau_2

New Line.l(r:p17udm7275-p17ulv6670) Units=km Length=0.0151494 bus1=p17udm7275.1.2 bus2=p17ulv6670.1.2 switch=n enabled=y phases=2 Linecode=1P_UG_AL_1/0_Brenau_2

New Line.l(r:p17udm7272-p17ulv6623) Units=km Length=0.017042400000000003 bus1=p17udm7272.1.2 bus2=p17ulv6623.1.2 switch=n enabled=y phases=2 Linecode=1P_UG_AL_1/0_Brenau_2

New Line.l(r:p17udm7272-p17ulv6635) Units=km Length=0.008865830000000002 bus1=p17udm7272.1.2 bus2=p17ulv6635.1.2 switch=n enabled=y phases=2 Linecode=1P_UG_AL_1/0_Brenau_2

New Line.l(r:p17udm7271-p17ulv6593) Units=km Length=0.009749360000000002 bus1=p17udm7271.1.2 bus2=p17ulv6593.1.2 switch=n enabled=y phases=2 Linecode=1P_UG_AL_1/0_Brenau_2

New Line.l(r:p17udm7271-p17udm7272) Units=km Length=0.00959859 bus1=p17udm7272.1.2 bus2=p17udm7271.1.2 switch=n enabled=y phases=2 Linecode=1P_UG_AL_1/0_Brenau_2

New Line.l(r:p17udm7272-p17udm7275) Units=km Length=0.00960232 bus1=p17udm7275.1.2 bus2=p17udm7272.1.2 switch=n enabled=y phases=2 Linecode=1P_UG_AL_2/0_Converse_2

New Line.l(r:p17udm7275-p17udt1713lv) Units=km Length=0.00960232 bus1=p17udt1713lv.1.2 bus2=p17udm7275.1.2 switch=n enabled=y phases=2 Linecode=1P_UG_AL_4/0_Sweetbriar_2

New Line.l(r:p17udt1719lv-p17ulv6599) Units=km Length=0.00993041 bus1=p17udt1719lv.1.2 bus2=p17ulv6599.1.2 switch=n enabled=y phases=2 Linecode=1P_UG_AL_1/0_Brenau_2

New Line.l(r:p17udt1719lv-p17ulv6609) Units=km Length=0.0168963 bus1=p17udt1719lv.1.2 bus2=p17ulv6609.1.2 switch=n enabled=y phases=2 Linecode=1P_UG_AL_1/0_Brenau_2

New Line.l(r:p17udm7314-p17ulv6580) Units=km Length=0.0161564 bus1=p17udm7314.1.2 bus2=p17ulv6580.1.2 switch=n enabled=y phases=2 Linecode=1P_UG_AL_1/0_Brenau_2

New Line.l(r:p17udm7313-p17ulv6578) Units=km Length=0.00877853 bus1=p17udm7313.1.2 bus2=p17ulv6578.1.2 switch=n enabled=y phases=2 Linecode=1P_UG_AL_1/0_Brenau_2

New Line.l(r:p17udm7313-p17ulv6607) Units=km Length=0.0166956 bus1=p17udm7313.1.2 bus2=p17ulv6607.1.2 switch=n enabled=y phases=2 Linecode=1P_UG_AL_1/0_Brenau_2

New Line.l(r:p17udm7313-p17udm7314) Units=km Length=0.00960232 bus1=p17udm7314.1.2 bus2=p17udm7313.1.2 switch=n enabled=y phases=2 Linecode=1P_UG_AL_1/0_Brenau_2

New Line.l(r:p17udm7314-p17udt1719lv) Units=km Length=0.00960232 bus1=p17udt1719lv.1.2 bus2=p17udm7314.1.2 switch=n enabled=y phases=2 Linecode=1P_UG_AL_2/0_Converse_2

New Line.l(r:p17udm7320-p17ulv6675) Units=km Length=0.0160323 bus1=p17udm7320.1.2 bus2=p17ulv6675.1.2 switch=n enabled=y phases=2 Linecode=1P_UG_AL_1/0_Brenau_2

New Line.l(r:p17udm7318-p17ulv6634) Units=km Length=0.0104217 bus1=p17udm7318.1.2 bus2=p17ulv6634.1.2 switch=n enabled=y phases=2 Linecode=1P_UG_AL_1/0_Brenau_2

New Line.l(r:p17udm7318-p17ulv6652) Units=km Length=0.018349500000000005 bus1=p17udm7318.1.2 bus2=p17ulv6652.1.2 switch=n enabled=y phases=2 Linecode=1P_UG_AL_1/0_Brenau_2

New Line.l(r:p17udm7318-p17udm7320) Units=km Length=0.00866222 bus1=p17udm7320.1.2 bus2=p17udm7318.1.2 switch=n enabled=y phases=2 Linecode=1P_UG_AL_1/0_Brenau_2

New Line.l(r:p17udm7320-p17udt1719lv) Units=km Length=0.00960232 bus1=p17udt1719lv.1.2 bus2=p17udm7320.1.2 switch=n enabled=y phases=2 Linecode=1P_UG_AL_2/0_Converse_2

New Line.l(r:p17udt2390lv-p17ulv9245) Units=km Length=0.0145978 bus1=p17udt2390lv.1.2 bus2=p17ulv9245.1.2 switch=n enabled=y phases=2 Linecode=1P_OH_AL_2/0_Rucina_2

New Line.l(r:p17udt2390lv-p17ulv9322) Units=km Length=0.00262393 bus1=p17udt2390lv.1.2 bus2=p17ulv9322.1.2 switch=n enabled=y phases=2 Linecode=1P_OH_AL_4_Periwinkle_2

New Line.l(r:p17udm10027-p17ulv9299) Units=km Length=0.00856767 bus1=p17udm10027.1.2 bus2=p17ulv9299.1.2 switch=n enabled=y phases=2 Linecode=1P_OH_AL_2/0_Rucina_2

New Line.l(r:p17udm10027-p17udt2390lv) Units=km Length=0.011155 bus1=p17udt2390lv.1.2 bus2=p17udm10027.1.2 switch=n enabled=y phases=2 Linecode=1P_OH_AL_2/0_Rucina_2

New Line.l(r:p17udm35251-p17ulv34370) Units=km Length=0.00643199 bus1=p17udm35251.1.2 bus2=p17ulv34370.1.2 switch=n enabled=y phases=2 Linecode=1P_OH_AL_2/0_Rucina_2

New Line.l(r:p17udm35251-p17udt9310lv) Units=km Length=0.018049300000000004 bus1=p17udt9310lv.1.2 bus2=p17udm35251.1.2 switch=n enabled=y phases=2 Linecode=1P_OH_AL_2/0_Rucina_2

New Line.l(r:p17udm35252-p17ulv34376) Units=km Length=0.0104971 bus1=p17udm35252.1.2 bus2=p17ulv34376.1.2 switch=n enabled=y phases=2 Linecode=1P_OH_AL_2/0_Rucina_2

New Line.l(r:p17udm35252-p17udt9310lv) Units=km Length=0.0360993 bus1=p17udt9310lv.1.2 bus2=p17udm35252.1.2 switch=n enabled=y phases=2 Linecode=1P_OH_AL_4/0_Zuzara_2

New Line.l(r:p17udm35288-p17ulv34630) Units=km Length=0.0136736 bus1=p17udm35288.1.2 bus2=p17ulv34630.1.2 switch=n enabled=y phases=2 Linecode=1P_UG_AL_1/0_Brenau_2

New Line.l(r:p17udm35288-p17ulv57543) Units=km Length=0.0128829 bus1=p17udm35288.1.2 bus2=p17ulv57543.1.2 switch=n enabled=y phases=2 Linecode=1P_UG_AL_1/0_Brenau_2

New Line.l(r:p17udm35287-p17ulv34387) Units=km Length=0.0153257 bus1=p17udm35287.1.2 bus2=p17ulv34387.1.2 switch=n enabled=y phases=2 Linecode=1P_UG_AL_1/0_Brenau_2

New Line.l(r:p17udm35287-p17udm35288) Units=km Length=0.0178403 bus1=p17udm35288.1.2 bus2=p17udm35287.1.2 switch=n enabled=y phases=2 Linecode=1P_UG_AL_1/0_Brenau_2

New Line.l(r:p17udm35288-p17udt9317lv) Units=km Length=0.0089202 bus1=p17udt9317lv.1.2 bus2=p17udm35288.1.2 switch=n enabled=y phases=2 Linecode=1P_UG_AL_4/0_Sweetbriar_2

New Line.l(r:p17udm35289-p17ulv39827) Units=km Length=0.0142618 bus1=p17udm35289.1.2 bus2=p17ulv39827.1.2 switch=n enabled=y phases=2 Linecode=1P_UG_AL_1/0_Brenau_2

New Line.l(r:p17udm35289-p17udt9317lv) Units=km Length=0.0453909 bus1=p17udt9317lv.1.2 bus2=p17udm35289.1.2 switch=n enabled=y phases=2 Linecode=1P_UG_AL_1/0_Brenau_2

New Line.l(r:p17udt9332lv-p17ulv34425) Units=km Length=0.0181133 bus1=p17udt9332lv.1.2 bus2=p17ulv34425.1.2 switch=n enabled=y phases=2 Linecode=1P_UG_AL_1/0_Brenau_2

New Line.l(r:p17udt9332lv-p17ulv34619) Units=km Length=0.04795760000000001 bus1=p17udt9332lv.1.2 bus2=p17ulv34619.1.2 switch=n enabled=y phases=2 Linecode=1P_UG_AL_1/0_Brenau_2

New Line.l(r:p17udt9332lv-p17ulv34623) Units=km Length=0.0683925 bus1=p17udt9332lv.1.2 bus2=p17ulv34623.1.2 switch=n enabled=y phases=2 Linecode=1P_UG_AL_1/0_Brenau_2

New Line.l(r:p17udt9332lv-p17ulv34675) Units=km Length=0.016575500000000003 bus1=p17udt9332lv.1.2 bus2=p17ulv34675.1.2 switch=n enabled=y phases=2 Linecode=1P_UG_AL_1/0_Brenau_2

New Line.l(r:p17udt9332lv-p17ulv39664) Units=km Length=0.014887800000000001 bus1=p17udt9332lv.1.2 bus2=p17ulv39664.1.2 switch=n enabled=y phases=2 Linecode=1P_UG_AL_1/0_Brenau_2

New Line.l(r:p17udt9357lv-p17ulv37760) Units=km Length=0.013954 bus1=p17udt9357lv.1.2 bus2=p17ulv37760.1.2 switch=n enabled=y phases=2 Linecode=1P_UG_AL_1/0_Brenau_2

New Line.l(r:p17udm35446-p17ulv34497) Units=km Length=0.0238879 bus1=p17udm35446.1.2 bus2=p17ulv34497.1.2 switch=n enabled=y phases=2 Linecode=1P_OH_AL_2/0_Rucina_2

New Line.l(r:p17udm35446-p17ulv34551) Units=km Length=0.0216485 bus1=p17udm35446.1.2 bus2=p17ulv34551.1.2 switch=n enabled=y phases=2 Linecode=1P_OH_AL_2/0_Rucina_2

New Line.l(r:p17udm35446-p17udt9357lv) Units=km Length=0.0773772 bus1=p17udt9357lv.1.2 bus2=p17udm35446.1.2 switch=n enabled=y phases=2 Linecode=1P_OH_AL_4/0_Zuzara_2

New Line.l(r:p17udm35448-p17ulv34559) Units=km Length=0.00960588 bus1=p17udm35448.1.2 bus2=p17ulv34559.1.2 switch=n enabled=y phases=2 Linecode=1P_UG_AL_1/0_Brenau_2

New Line.l(r:p17udm35450-p17ulv37794) Units=km Length=0.0142315 bus1=p17udm35450.1.2 bus2=p17ulv37794.1.2 switch=n enabled=y phases=2 Linecode=1P_UG_AL_1/0_Brenau_2

New Line.l(r:p17udm35448-p17udm35450) Units=km Length=0.0170606 bus1=p17udm35448.1.2 bus2=p17udm35450.1.2 switch=n enabled=y phases=2 Linecode=1P_UG_AL_1/0_Brenau_2
