New Load.load_p17ulv4439_1 conn=wye bus1=p17ulv4439.1 kV=0.12 Vminpu=0.8 Vmaxpu=1.2 model=1 kW=3.9196560169368118 kvar=0.9040399941243624 Phases=1 yearly=res_kw_14345_pu

New Load.load_p17ulv4439_2 conn=wye bus1=p17ulv4439.2 kV=0.12 Vminpu=0.8 Vmaxpu=1.2 model=1 kW=3.9196560169368118 kvar=0.9040399941243624 Phases=1 yearly=res_kw_14345_pu

New Load.load_p17ulv4942_1 conn=wye bus1=p17ulv4942.1 kV=0.12 Vminpu=0.8 Vmaxpu=1.2 model=1 kW=6.234915209583956 kvar=1.458611592775165 Phases=1 yearly=res_kw_12062_pu

New Load.load_p17ulv4942_2 conn=wye bus1=p17ulv4942.2 kV=0.12 Vminpu=0.8 Vmaxpu=1.2 model=1 kW=6.234915209583956 kvar=1.458611592775165 Phases=1 yearly=res_kw_12062_pu

New Load.load_p17ulv4944_1 conn=wye bus1=p17ulv4944.1 kV=0.12 Vminpu=0.8 Vmaxpu=1.2 model=1 kW=4.342506017041498 kvar=1.3815432422300318 Phases=1 yearly=res_kw_4681_pu

New Load.load_p17ulv4944_2 conn=wye bus1=p17ulv4944.2 kV=0.12 Vminpu=0.8 Vmaxpu=1.2 model=1 kW=4.342506017041498 kvar=1.3815432422300318 Phases=1 yearly=res_kw_4681_pu

New Load.load_p17ulv4946_1 conn=wye bus1=p17ulv4946.1 kV=0.12 Vminpu=0.8 Vmaxpu=1.2 model=1 kW=4.92689650677237 kvar=1.2217282078519125 Phases=1 yearly=res_kw_2282_pu

New Load.load_p17ulv4946_2 conn=wye bus1=p17ulv4946.2 kV=0.12 Vminpu=0.8 Vmaxpu=1.2 model=1 kW=4.92689650677237 kvar=1.2217282078519125 Phases=1 yearly=res_kw_2282_pu

New Load.load_p17ulv4947_1 conn=wye bus1=p17ulv4947.1 kV=0.12 Vminpu=0.8 Vmaxpu=1.2 model=1 kW=5.025906249596352 kvar=1.5140456715474255 Phases=1 yearly=res_kw_4414_pu

New Load.load_p17ulv4947_2 conn=wye bus1=p17ulv4947.2 kV=0.12 Vminpu=0.8 Vmaxpu=1.2 model=1 kW=5.025906249596352 kvar=1.5140456715474255 Phases=1 yearly=res_kw_4414_pu

New Load.load_p17ulv4948_1 conn=wye bus1=p17ulv4948.1 kV=0.12 Vminpu=0.8 Vmaxpu=1.2 model=1 kW=1.2075389461119934 kvar=0.3167249782629938 Phases=1 yearly=res_kw_11868_pu

New Load.load_p17ulv4948_2 conn=wye bus1=p17ulv4948.2 kV=0.12 Vminpu=0.8 Vmaxpu=1.2 model=1 kW=1.2075389461119934 kvar=0.3167249782629938 Phases=1 yearly=res_kw_11868_pu

New Load.load_p17ulv4951_1 conn=wye bus1=p17ulv4951.1 kV=0.12 Vminpu=0.8 Vmaxpu=1.2 model=1 kW=2.420833334058086 kvar=0.7706826280690459 Phases=1 yearly=res_kw_4011_pu

New Load.load_p17ulv4951_2 conn=wye bus1=p17ulv4951.2 kV=0.12 Vminpu=0.8 Vmaxpu=1.2 model=1 kW=2.420833334058086 kvar=0.7706826280690459 Phases=1 yearly=res_kw_4011_pu

New Load.load_p17ulv4957_1 conn=wye bus1=p17ulv4957.1 kV=0.12 Vminpu=0.8 Vmaxpu=1.2 model=1 kW=3.8047264527626514 kvar=0.2869646778897783 Phases=1 yearly=res_kw_6602_pu

New Load.load_p17ulv4957_2 conn=wye bus1=p17ulv4957.2 kV=0.12 Vminpu=0.8 Vmaxpu=1.2 model=1 kW=3.8047264527626514 kvar=0.2869646778897783 Phases=1 yearly=res_kw_6602_pu

New Load.load_p17ulv4958_1 conn=wye bus1=p17ulv4958.1 kV=0.12 Vminpu=0.8 Vmaxpu=1.2 model=1 kW=3.5354191650969304 kvar=1.021474270254651 Phases=1 yearly=res_kw_9896_pu

New Load.load_p17ulv4958_2 conn=wye bus1=p17ulv4958.2 kV=0.12 Vminpu=0.8 Vmaxpu=1.2 model=1 kW=3.5354191650969304 kvar=1.021474270254651 Phases=1 yearly=res_kw_9896_pu

New Load.load_p17ulv4961_1 conn=wye bus1=p17ulv4961.1 kV=0.12 Vminpu=0.8 Vmaxpu=1.2 model=1 kW=2.5715023595004105 kvar=1.0760484201629676 Phases=1 yearly=res_kw_10386_pu

New Load.load_p17ulv4961_2 conn=wye bus1=p17ulv4961.2 kV=0.12 Vminpu=0.8 Vmaxpu=1.2 model=1 kW=2.5715023595004105 kvar=1.0760484201629676 Phases=1 yearly=res_kw_10386_pu

New Load.load_p17ulv4966_1 conn=wye bus1=p17ulv4966.1 kV=0.12 Vminpu=0.8 Vmaxpu=1.2 model=1 kW=3.780459138469068 kvar=1.0040361578043995 Phases=1 yearly=res_kw_9428_pu

New Load.load_p17ulv4966_2 conn=wye bus1=p17ulv4966.2 kV=0.12 Vminpu=0.8 Vmaxpu=1.2 model=1 kW=3.780459138469068 kvar=1.0040361578043995 Phases=1 yearly=res_kw_9428_pu

New Load.load_p17ulv4967_1 conn=wye bus1=p17ulv4967.1 kV=0.12 Vminpu=0.8 Vmaxpu=1.2 model=1 kW=2.031958415285712 kvar=0.13812287839494472 Phases=1 yearly=res_kw_11842_pu

New Load.load_p17ulv4967_2 conn=wye bus1=p17ulv4967.2 kV=0.12 Vminpu=0.8 Vmaxpu=1.2 model=1 kW=2.031958415285712 kvar=0.13812287839494472 Phases=1 yearly=res_kw_11842_pu

New Load.load_p17ulv4980_1 conn=wye bus1=p17ulv4980.1 kV=0.12 Vminpu=0.8 Vmaxpu=1.2 model=1 kW=6.029340317181467 kvar=0.8428650524659024 Phases=1 yearly=res_kw_7631_pu

New Load.load_p17ulv4980_2 conn=wye bus1=p17ulv4980.2 kV=0.12 Vminpu=0.8 Vmaxpu=1.2 model=1 kW=6.029340317181467 kvar=0.8428650524659024 Phases=1 yearly=res_kw_7631_pu

New Load.load_p17ulv4981_1 conn=wye bus1=p17ulv4981.1 kV=0.12 Vminpu=0.8 Vmaxpu=1.2 model=1 kW=2.084104665734877 kvar=0.536257185959419 Phases=1 yearly=res_kw_7907_pu

New Load.load_p17ulv4981_2 conn=wye bus1=p17ulv4981.2 kV=0.12 Vminpu=0.8 Vmaxpu=1.2 model=1 kW=2.084104665734877 kvar=0.536257185959419 Phases=1 yearly=res_kw_7907_pu

New Load.load_p17ulv4985_1 conn=wye bus1=p17ulv4985.1 kV=0.12 Vminpu=0.8 Vmaxpu=1.2 model=1 kW=1.3372741849205692 kvar=0.44778961587647625 Phases=1 yearly=res_kw_13507_pu

New Load.load_p17ulv4985_2 conn=wye bus1=p17ulv4985.2 kV=0.12 Vminpu=0.8 Vmaxpu=1.2 model=1 kW=1.3372741849205692 kvar=0.44778961587647625 Phases=1 yearly=res_kw_13507_pu

New Load.load_p17ulv4994_1 conn=wye bus1=p17ulv4994.1 kV=0.12 Vminpu=0.8 Vmaxpu=1.2 model=1 kW=1.7188002681357404 kvar=0.9474547211502857 Phases=1 yearly=res_kw_14289_pu

New Load.load_p17ulv4994_2 conn=wye bus1=p17ulv4994.2 kV=0.12 Vminpu=0.8 Vmaxpu=1.2 model=1 kW=1.7188002681357404 kvar=0.9474547211502857 Phases=1 yearly=res_kw_14289_pu

New Load.load_p17ulv5009_1 conn=wye bus1=p17ulv5009.1 kV=0.12 Vminpu=0.8 Vmaxpu=1.2 model=1 kW=2.396349422902612 kvar=0.13402564403017767 Phases=1 yearly=res_kw_15225_pu

New Load.load_p17ulv5009_2 conn=wye bus1=p17ulv5009.2 kV=0.12 Vminpu=0.8 Vmaxpu=1.2 model=1 kW=2.396349422902612 kvar=0.13402564403017767 Phases=1 yearly=res_kw_15225_pu

New Load.load_p17ulv5012_1 conn=wye bus1=p17ulv5012.1 kV=0.12 Vminpu=0.8 Vmaxpu=1.2 model=1 kW=3.7813411640480736 kvar=1.4182052484168413 Phases=1 yearly=res_kw_2868_pu

New Load.load_p17ulv5012_2 conn=wye bus1=p17ulv5012.2 kV=0.12 Vminpu=0.8 Vmaxpu=1.2 model=1 kW=3.7813411640480736 kvar=1.4182052484168413 Phases=1 yearly=res_kw_2868_pu

New Load.load_p17ulv5023_1 conn=wye bus1=p17ulv5023.1 kV=0.12 Vminpu=0.8 Vmaxpu=1.2 model=1 kW=7.256170803997778 kvar=1.694755082731071 Phases=1 yearly=res_kw_13167_pu

New Load.load_p17ulv5023_2 conn=wye bus1=p17ulv5023.2 kV=0.12 Vminpu=0.8 Vmaxpu=1.2 model=1 kW=7.256170803997778 kvar=1.694755082731071 Phases=1 yearly=res_kw_13167_pu

New Load.load_p17ulv5024_1 conn=wye bus1=p17ulv5024.1 kV=0.12 Vminpu=0.8 Vmaxpu=1.2 model=1 kW=4.978924462157091 kvar=1.5029863072585232 Phases=1 yearly=res_kw_1389_pu

New Load.load_p17ulv5024_2 conn=wye bus1=p17ulv5024.2 kV=0.12 Vminpu=0.8 Vmaxpu=1.2 model=1 kW=4.978924462157091 kvar=1.5029863072585232 Phases=1 yearly=res_kw_1389_pu

New Load.load_p17ulv5026_1 conn=wye bus1=p17ulv5026.1 kV=0.12 Vminpu=0.8 Vmaxpu=1.2 model=1 kW=0.696455257947775 kvar=0.26943121901999684 Phases=1 yearly=res_kw_8494_pu

New Load.load_p17ulv5026_2 conn=wye bus1=p17ulv5026.2 kV=0.12 Vminpu=0.8 Vmaxpu=1.2 model=1 kW=0.696455257947775 kvar=0.26943121901999684 Phases=1 yearly=res_kw_8494_pu

New Load.load_p17ulv5036_1 conn=wye bus1=p17ulv5036.1 kV=0.12 Vminpu=0.8 Vmaxpu=1.2 model=1 kW=4.025862244582246 kvar=1.1423616747148284 Phases=1 yearly=res_kw_12348_pu

New Load.load_p17ulv5036_2 conn=wye bus1=p17ulv5036.2 kV=0.12 Vminpu=0.8 Vmaxpu=1.2 model=1 kW=4.025862244582246 kvar=1.1423616747148284 Phases=1 yearly=res_kw_12348_pu

New Load.load_p17ulv5038_1 conn=wye bus1=p17ulv5038.1 kV=0.12 Vminpu=0.8 Vmaxpu=1.2 model=1 kW=1.6481762593729927 kvar=0.809597412462238 Phases=1 yearly=res_kw_5668_pu

New Load.load_p17ulv5038_2 conn=wye bus1=p17ulv5038.2 kV=0.12 Vminpu=0.8 Vmaxpu=1.2 model=1 kW=1.6481762593729927 kvar=0.809597412462238 Phases=1 yearly=res_kw_5668_pu

New Load.load_p17ulv5040_1 conn=wye bus1=p17ulv5040.1 kV=0.12 Vminpu=0.8 Vmaxpu=1.2 model=1 kW=1.0670839471053375 kvar=0.4535714644585438 Phases=1 yearly=res_kw_2085_pu

New Load.load_p17ulv5040_2 conn=wye bus1=p17ulv5040.2 kV=0.12 Vminpu=0.8 Vmaxpu=1.2 model=1 kW=1.0670839471053375 kvar=0.4535714644585438 Phases=1 yearly=res_kw_2085_pu

New Load.load_p17ulv5045_1 conn=wye bus1=p17ulv5045.1 kV=0.12 Vminpu=0.8 Vmaxpu=1.2 model=1 kW=1.9444657359992037 kvar=1.058006608995704 Phases=1 yearly=res_kw_1263_pu

New Load.load_p17ulv5045_2 conn=wye bus1=p17ulv5045.2 kV=0.12 Vminpu=0.8 Vmaxpu=1.2 model=1 kW=1.9444657359992037 kvar=1.058006608995704 Phases=1 yearly=res_kw_1263_pu

New Load.load_p17ulv5047_1 conn=wye bus1=p17ulv5047.1 kV=0.12 Vminpu=0.8 Vmaxpu=1.2 model=1 kW=2.832333419225061 kvar=0.998873410970409 Phases=1 yearly=res_kw_5069_pu

New Load.load_p17ulv5047_2 conn=wye bus1=p17ulv5047.2 kV=0.12 Vminpu=0.8 Vmaxpu=1.2 model=1 kW=2.832333419225061 kvar=0.998873410970409 Phases=1 yearly=res_kw_5069_pu

New Load.load_p17ulv5051_1 conn=wye bus1=p17ulv5051.1 kV=0.12 Vminpu=0.8 Vmaxpu=1.2 model=1 kW=1.1933498327452643 kvar=0.42198311318831555 Phases=1 yearly=res_kw_11288_pu

New Load.load_p17ulv5051_2 conn=wye bus1=p17ulv5051.2 kV=0.12 Vminpu=0.8 Vmaxpu=1.2 model=1 kW=1.1933498327452643 kvar=0.42198311318831555 Phases=1 yearly=res_kw_11288_pu

New Load.load_p17ulv5059_1 conn=wye bus1=p17ulv5059.1 kV=0.12 Vminpu=0.8 Vmaxpu=1.2 model=1 kW=1.2364522257182031 kvar=0.41547706331047085 Phases=1 yearly=res_kw_14866_pu

New Load.load_p17ulv5059_2 conn=wye bus1=p17ulv5059.2 kV=0.12 Vminpu=0.8 Vmaxpu=1.2 model=1 kW=1.2364522257182031 kvar=0.41547706331047085 Phases=1 yearly=res_kw_14866_pu

New Load.load_p17ulv5075_1 conn=wye bus1=p17ulv5075.1 kV=0.12 Vminpu=0.8 Vmaxpu=1.2 model=1 kW=1.4027348768866257 kvar=0.4688021737709432 Phases=1 yearly=res_kw_11802_pu

New Load.load_p17ulv5075_2 conn=wye bus1=p17ulv5075.2 kV=0.12 Vminpu=0.8 Vmaxpu=1.2 model=1 kW=1.4027348768866257 kvar=0.4688021737709432 Phases=1 yearly=res_kw_11802_pu

New Load.load_p17ulv5078_1 conn=wye bus1=p17ulv5078.1 kV=0.12 Vminpu=0.8 Vmaxpu=1.2 model=1 kW=2.876043044068563 kvar=0.8047319040687714 Phases=1 yearly=res_kw_10710_pu

New Load.load_p17ulv5078_2 conn=wye bus1=p17ulv5078.2 kV=0.12 Vminpu=0.8 Vmaxpu=1.2 model=1 kW=2.876043044068563 kvar=0.8047319040687714 Phases=1 yearly=res_kw_10710_pu

New Load.load_p17ulv5089_1 conn=wye bus1=p17ulv5089.1 kV=0.12 Vminpu=0.8 Vmaxpu=1.2 model=1 kW=2.08053934867757 kvar=0.19082517830123075 Phases=1 yearly=res_kw_11220_pu

New Load.load_p17ulv5089_2 conn=wye bus1=p17ulv5089.2 kV=0.12 Vminpu=0.8 Vmaxpu=1.2 model=1 kW=2.08053934867757 kvar=0.19082517830123075 Phases=1 yearly=res_kw_11220_pu

New Load.load_p17ulv5094_1 conn=wye bus1=p17ulv5094.1 kV=0.12 Vminpu=0.8 Vmaxpu=1.2 model=1 kW=1.7501247929276162 kvar=0.7643109722486057 Phases=1 yearly=res_kw_3954_pu

New Load.load_p17ulv5094_2 conn=wye bus1=p17ulv5094.2 kV=0.12 Vminpu=0.8 Vmaxpu=1.2 model=1 kW=1.7501247929276162 kvar=0.7643109722486057 Phases=1 yearly=res_kw_3954_pu

New Load.load_p17ulv5096_1 conn=wye bus1=p17ulv5096.1 kV=0.12 Vminpu=0.8 Vmaxpu=1.2 model=1 kW=1.3369971762851514 kvar=0.5299631075917361 Phases=1 yearly=res_kw_4783_pu

New Load.load_p17ulv5096_2 conn=wye bus1=p17ulv5096.2 kV=0.12 Vminpu=0.8 Vmaxpu=1.2 model=1 kW=1.3369971762851514 kvar=0.5299631075917361 Phases=1 yearly=res_kw_4783_pu

New Load.load_p17ulv5106_1 conn=wye bus1=p17ulv5106.1 kV=0.12 Vminpu=0.8 Vmaxpu=1.2 model=1 kW=2.7961731487046246 kvar=1.0324526641097378 Phases=1 yearly=res_kw_2453_pu

New Load.load_p17ulv5106_2 conn=wye bus1=p17ulv5106.2 kV=0.12 Vminpu=0.8 Vmaxpu=1.2 model=1 kW=2.7961731487046246 kvar=1.0324526641097378 Phases=1 yearly=res_kw_2453_pu

New Load.load_p17ulv5107_1 conn=wye bus1=p17ulv5107.1 kV=0.12 Vminpu=0.8 Vmaxpu=1.2 model=1 kW=1.3903606764448309 kvar=0.35989325704970737 Phases=1 yearly=res_kw_5110_pu

New Load.load_p17ulv5107_2 conn=wye bus1=p17ulv5107.2 kV=0.12 Vminpu=0.8 Vmaxpu=1.2 model=1 kW=1.3903606764448309 kvar=0.35989325704970737 Phases=1 yearly=res_kw_5110_pu

New Load.load_p17ulv5115_1 conn=wye bus1=p17ulv5115.1 kV=0.12 Vminpu=0.8 Vmaxpu=1.2 model=1 kW=2.175848902321112 kvar=0.8167524537376402 Phases=1 yearly=res_kw_13015_pu

New Load.load_p17ulv5115_2 conn=wye bus1=p17ulv5115.2 kV=0.12 Vminpu=0.8 Vmaxpu=1.2 model=1 kW=2.175848902321112 kvar=0.8167524537376402 Phases=1 yearly=res_kw_13015_pu

New Load.load_p17ulv5128_1 conn=wye bus1=p17ulv5128.1 kV=0.12 Vminpu=0.8 Vmaxpu=1.2 model=1 kW=0.6697995975485909 kvar=0.41657408993223344 Phases=1 yearly=res_kw_6096_pu

New Load.load_p17ulv5128_2 conn=wye bus1=p17ulv5128.2 kV=0.12 Vminpu=0.8 Vmaxpu=1.2 model=1 kW=0.6697995975485909 kvar=0.41657408993223344 Phases=1 yearly=res_kw_6096_pu

New Load.load_p17ulv5137_1 conn=wye bus1=p17ulv5137.1 kV=0.12 Vminpu=0.8 Vmaxpu=1.2 model=1 kW=2.420833334058086 kvar=0.7706826280690459 Phases=1 yearly=res_kw_4011_pu

New Load.load_p17ulv5137_2 conn=wye bus1=p17ulv5137.2 kV=0.12 Vminpu=0.8 Vmaxpu=1.2 model=1 kW=2.420833334058086 kvar=0.7706826280690459 Phases=1 yearly=res_kw_4011_pu

New Load.load_p17ulv5138_1 conn=wye bus1=p17ulv5138.1 kV=0.12 Vminpu=0.8 Vmaxpu=1.2 model=1 kW=1.8322096344455547 kvar=0.7991596594888891 Phases=1 yearly=res_kw_588_pu

New Load.load_p17ulv5138_2 conn=wye bus1=p17ulv5138.2 kV=0.12 Vminpu=0.8 Vmaxpu=1.2 model=1 kW=1.8322096344455547 kvar=0.7991596594888891 Phases=1 yearly=res_kw_588_pu

New Load.load_p17ulv5142_1 conn=wye bus1=p17ulv5142.1 kV=0.12 Vminpu=0.8 Vmaxpu=1.2 model=1 kW=1.5924067901709626 kvar=0.46681640832512994 Phases=1 yearly=res_kw_9813_pu

New Load.load_p17ulv5142_2 conn=wye bus1=p17ulv5142.2 kV=0.12 Vminpu=0.8 Vmaxpu=1.2 model=1 kW=1.5924067901709626 kvar=0.46681640832512994 Phases=1 yearly=res_kw_9813_pu

New Load.load_p17ulv5144_1 conn=wye bus1=p17ulv5144.1 kV=0.12 Vminpu=0.8 Vmaxpu=1.2 model=1 kW=1.9616390511088273 kvar=1.0190076472670158 Phases=1 yearly=res_kw_9131_pu

New Load.load_p17ulv5144_2 conn=wye bus1=p17ulv5144.2 kV=0.12 Vminpu=0.8 Vmaxpu=1.2 model=1 kW=1.9616390511088273 kvar=1.0190076472670158 Phases=1 yearly=res_kw_9131_pu

New Load.load_p17ulv5149_1 conn=wye bus1=p17ulv5149.1 kV=0.12 Vminpu=0.8 Vmaxpu=1.2 model=1 kW=1.8936489420345144 kvar=0.7926648620319505 Phases=1 yearly=res_kw_6563_pu

New Load.load_p17ulv5149_2 conn=wye bus1=p17ulv5149.2 kV=0.12 Vminpu=0.8 Vmaxpu=1.2 model=1 kW=1.8936489420345144 kvar=0.7926648620319505 Phases=1 yearly=res_kw_6563_pu

New Load.load_p17ulv5154_1 conn=wye bus1=p17ulv5154.1 kV=0.12 Vminpu=0.8 Vmaxpu=1.2 model=1 kW=1.1816173171316173 kvar=0.6581224543523244 Phases=1 yearly=res_kw_3201_pu

New Load.load_p17ulv5154_2 conn=wye bus1=p17ulv5154.2 kV=0.12 Vminpu=0.8 Vmaxpu=1.2 model=1 kW=1.1816173171316173 kvar=0.6581224543523244 Phases=1 yearly=res_kw_3201_pu

New Load.load_p17ulv5156_1 conn=wye bus1=p17ulv5156.1 kV=0.12 Vminpu=0.8 Vmaxpu=1.2 model=1 kW=1.748614847729704 kvar=1.305486580818 Phases=1 yearly=res_kw_5724_pu

New Load.load_p17ulv5156_2 conn=wye bus1=p17ulv5156.2 kV=0.12 Vminpu=0.8 Vmaxpu=1.2 model=1 kW=1.748614847729704 kvar=1.305486580818 Phases=1 yearly=res_kw_5724_pu

New Load.load_p17ulv5167_1 conn=wye bus1=p17ulv5167.1 kV=0.12 Vminpu=0.8 Vmaxpu=1.2 model=1 kW=2.084104665734877 kvar=0.536257185959419 Phases=1 yearly=res_kw_7907_pu

New Load.load_p17ulv5167_2 conn=wye bus1=p17ulv5167.2 kV=0.12 Vminpu=0.8 Vmaxpu=1.2 model=1 kW=2.084104665734877 kvar=0.536257185959419 Phases=1 yearly=res_kw_7907_pu

New Load.load_p17ulv5170_1 conn=wye bus1=p17ulv5170.1 kV=0.12 Vminpu=0.8 Vmaxpu=1.2 model=1 kW=2.9233060787231575 kvar=1.431469772224645 Phases=1 yearly=res_kw_5155_pu

New Load.load_p17ulv5170_2 conn=wye bus1=p17ulv5170.2 kV=0.12 Vminpu=0.8 Vmaxpu=1.2 model=1 kW=2.9233060787231575 kvar=1.431469772224645 Phases=1 yearly=res_kw_5155_pu

New Load.load_p17ulv5182_1 conn=wye bus1=p17ulv5182.1 kV=0.12 Vminpu=0.8 Vmaxpu=1.2 model=1 kW=4.709076706416643 kvar=0.09250802079027616 Phases=1 yearly=res_kw_8820_pu

New Load.load_p17ulv5182_2 conn=wye bus1=p17ulv5182.2 kV=0.12 Vminpu=0.8 Vmaxpu=1.2 model=1 kW=4.709076706416643 kvar=0.09250802079027616 Phases=1 yearly=res_kw_8820_pu

New Load.load_p17ulv5183_1 conn=wye bus1=p17ulv5183.1 kV=0.12 Vminpu=0.8 Vmaxpu=1.2 model=1 kW=5.374987363430531 kvar=0.2502445808692977 Phases=1 yearly=res_kw_6607_pu

New Load.load_p17ulv5183_2 conn=wye bus1=p17ulv5183.2 kV=0.12 Vminpu=0.8 Vmaxpu=1.2 model=1 kW=5.374987363430531 kvar=0.2502445808692977 Phases=1 yearly=res_kw_6607_pu

New Load.load_p17ulv5201_1 conn=wye bus1=p17ulv5201.1 kV=0.12 Vminpu=0.8 Vmaxpu=1.2 model=1 kW=2.6566422962001717 kvar=1.2022091440052172 Phases=1 yearly=res_kw_13510_pu

New Load.load_p17ulv5201_2 conn=wye bus1=p17ulv5201.2 kV=0.12 Vminpu=0.8 Vmaxpu=1.2 model=1 kW=2.6566422962001717 kvar=1.2022091440052172 Phases=1 yearly=res_kw_13510_pu

New Load.load_p17ulv5202_1 conn=wye bus1=p17ulv5202.1 kV=0.12 Vminpu=0.8 Vmaxpu=1.2 model=1 kW=1.1816173171316173 kvar=0.6581224543523244 Phases=1 yearly=res_kw_3201_pu

New Load.load_p17ulv5202_2 conn=wye bus1=p17ulv5202.2 kV=0.12 Vminpu=0.8 Vmaxpu=1.2 model=1 kW=1.1816173171316173 kvar=0.6581224543523244 Phases=1 yearly=res_kw_3201_pu

New Load.load_p17ulv5203_1 conn=wye bus1=p17ulv5203.1 kV=0.12 Vminpu=0.8 Vmaxpu=1.2 model=1 kW=2.461258219885108 kvar=0.2667854946617303 Phases=1 yearly=res_kw_1089_pu

New Load.load_p17ulv5203_2 conn=wye bus1=p17ulv5203.2 kV=0.12 Vminpu=0.8 Vmaxpu=1.2 model=1 kW=2.461258219885108 kvar=0.2667854946617303 Phases=1 yearly=res_kw_1089_pu

New Load.load_p17ulv5205_1 conn=wye bus1=p17ulv5205.1 kV=0.12 Vminpu=0.8 Vmaxpu=1.2 model=1 kW=4.037961707989467 kvar=0.3691190849967326 Phases=1 yearly=res_kw_8669_pu

New Load.load_p17ulv5205_2 conn=wye bus1=p17ulv5205.2 kV=0.12 Vminpu=0.8 Vmaxpu=1.2 model=1 kW=4.037961707989467 kvar=0.3691190849967326 Phases=1 yearly=res_kw_8669_pu

New Load.load_p17ulv5212_1 conn=wye bus1=p17ulv5212.1 kV=0.12 Vminpu=0.8 Vmaxpu=1.2 model=1 kW=2.3374419606114465 kvar=0.8276898777002473 Phases=1 yearly=res_kw_10051_pu

New Load.load_p17ulv5212_2 conn=wye bus1=p17ulv5212.2 kV=0.12 Vminpu=0.8 Vmaxpu=1.2 model=1 kW=2.3374419606114465 kvar=0.8276898777002473 Phases=1 yearly=res_kw_10051_pu

New Load.load_p17ulv5819_1 conn=wye bus1=p17ulv5819.1 kV=0.12 Vminpu=0.8 Vmaxpu=1.2 model=1 kW=2.0296094058192193 kvar=0.8851538524476449 Phases=1 yearly=res_kw_9331_pu

New Load.load_p17ulv5819_2 conn=wye bus1=p17ulv5819.2 kV=0.12 Vminpu=0.8 Vmaxpu=1.2 model=1 kW=2.0296094058192193 kvar=0.8851538524476449 Phases=1 yearly=res_kw_9331_pu

New Load.load_p17ulv5883_1 conn=wye bus1=p17ulv5883.1 kV=0.12 Vminpu=0.8 Vmaxpu=1.2 model=1 kW=3.7813411640480736 kvar=1.4182052484168413 Phases=1 yearly=res_kw_2868_pu

New Load.load_p17ulv5883_2 conn=wye bus1=p17ulv5883.2 kV=0.12 Vminpu=0.8 Vmaxpu=1.2 model=1 kW=3.7813411640480736 kvar=1.4182052484168413 Phases=1 yearly=res_kw_2868_pu

New Load.load_p17ulv5900 conn=wye bus1=p17ulv5900.1.2.3 kV=0.48 Vminpu=0.8 Vmaxpu=1.2 model=1 kW=24.556756822322196 kvar=6.150888417501412 Phases=3 yearly=com_kw_39901_pu

New Load.load_p17ulv6034_1 conn=wye bus1=p17ulv6034.1 kV=0.12 Vminpu=0.8 Vmaxpu=1.2 model=1 kW=2.5379071176927064 kvar=0.7168723502737137 Phases=1 yearly=com_kw_2606_pu

New Load.load_p17ulv6034_2 conn=wye bus1=p17ulv6034.2 kV=0.12 Vminpu=0.8 Vmaxpu=1.2 model=1 kW=2.5379071176927064 kvar=0.7168723502737137 Phases=1 yearly=com_kw_2606_pu

New Load.load_p17ulv6056_1 conn=wye bus1=p17ulv6056.1 kV=0.12 Vminpu=0.8 Vmaxpu=1.2 model=1 kW=4.968275249385869 kvar=0.8140550101159545 Phases=1 yearly=res_kw_3376_pu

New Load.load_p17ulv6056_2 conn=wye bus1=p17ulv6056.2 kV=0.12 Vminpu=0.8 Vmaxpu=1.2 model=1 kW=4.968275249385869 kvar=0.8140550101159545 Phases=1 yearly=res_kw_3376_pu

New Load.load_p17ulv6115_1 conn=wye bus1=p17ulv6115.1 kV=0.12 Vminpu=0.8 Vmaxpu=1.2 model=1 kW=7.097541464710096 kvar=1.9966184091014842 Phases=1 yearly=res_kw_2603_pu

New Load.load_p17ulv6115_2 conn=wye bus1=p17ulv6115.2 kV=0.12 Vminpu=0.8 Vmaxpu=1.2 model=1 kW=7.097541464710096 kvar=1.9966184091014842 Phases=1 yearly=res_kw_2603_pu

New Load.load_p17ulv6132_1 conn=wye bus1=p17ulv6132.1 kV=0.12 Vminpu=0.8 Vmaxpu=1.2 model=1 kW=4.178802493278684 kvar=1.1784670344199408 Phases=1 yearly=res_kw_13091_pu

New Load.load_p17ulv6132_2 conn=wye bus1=p17ulv6132.2 kV=0.12 Vminpu=0.8 Vmaxpu=1.2 model=1 kW=4.178802493278684 kvar=1.1784670344199408 Phases=1 yearly=res_kw_13091_pu

New Load.load_p17ulv6561_1 conn=wye bus1=p17ulv6561.1 kV=0.12 Vminpu=0.8 Vmaxpu=1.2 model=1 kW=2.2940918969002624 kvar=0.8481135771367235 Phases=1 yearly=res_kw_4402_pu

New Load.load_p17ulv6561_2 conn=wye bus1=p17ulv6561.2 kV=0.12 Vminpu=0.8 Vmaxpu=1.2 model=1 kW=2.2940918969002624 kvar=0.8481135771367235 Phases=1 yearly=res_kw_4402_pu

New Load.load_p17ulv6565_1 conn=wye bus1=p17ulv6565.1 kV=0.12 Vminpu=0.8 Vmaxpu=1.2 model=1 kW=6.365105547923642 kvar=1.4233882210714333 Phases=1 yearly=res_kw_3118_pu

New Load.load_p17ulv6565_2 conn=wye bus1=p17ulv6565.2 kV=0.12 Vminpu=0.8 Vmaxpu=1.2 model=1 kW=6.365105547923642 kvar=1.4233882210714333 Phases=1 yearly=res_kw_3118_pu

New Load.load_p17ulv6573_1 conn=wye bus1=p17ulv6573.1 kV=0.12 Vminpu=0.8 Vmaxpu=1.2 model=1 kW=2.4477708140814496 kvar=1.2695070292795452 Phases=1 yearly=res_kw_14077_pu

New Load.load_p17ulv6573_2 conn=wye bus1=p17ulv6573.2 kV=0.12 Vminpu=0.8 Vmaxpu=1.2 model=1 kW=2.4477708140814496 kvar=1.2695070292795452 Phases=1 yearly=res_kw_14077_pu

New Load.load_p17ulv6578_1 conn=wye bus1=p17ulv6578.1 kV=0.12 Vminpu=0.8 Vmaxpu=1.2 model=1 kW=6.365105547923642 kvar=1.4233882210714333 Phases=1 yearly=res_kw_3118_pu

New Load.load_p17ulv6578_2 conn=wye bus1=p17ulv6578.2 kV=0.12 Vminpu=0.8 Vmaxpu=1.2 model=1 kW=6.365105547923642 kvar=1.4233882210714333 Phases=1 yearly=res_kw_3118_pu

New Load.load_p17ulv6580_1 conn=wye bus1=p17ulv6580.1 kV=0.12 Vminpu=0.8 Vmaxpu=1.2 model=1 kW=2.723501003697352 kvar=1.0802810078661351 Phases=1 yearly=res_kw_8192_pu

New Load.load_p17ulv6580_2 conn=wye bus1=p17ulv6580.2 kV=0.12 Vminpu=0.8 Vmaxpu=1.2 model=1 kW=2.723501003697352 kvar=1.0802810078661351 Phases=1 yearly=res_kw_8192_pu

New Load.load_p17ulv6584_1 conn=wye bus1=p17ulv6584.1 kV=0.12 Vminpu=0.8 Vmaxpu=1.2 model=1 kW=4.69722938823788 kvar=0.6546008506549251 Phases=1 yearly=res_kw_12125_pu

New Load.load_p17ulv6584_2 conn=wye bus1=p17ulv6584.2 kV=0.12 Vminpu=0.8 Vmaxpu=1.2 model=1 kW=4.69722938823788 kvar=0.6546008506549251 Phases=1 yearly=res_kw_12125_pu

New Load.load_p17ulv6593_1 conn=wye bus1=p17ulv6593.1 kV=0.12 Vminpu=0.8 Vmaxpu=1.2 model=1 kW=4.69722938823788 kvar=0.6546008506549251 Phases=1 yearly=res_kw_12125_pu

New Load.load_p17ulv6593_2 conn=wye bus1=p17ulv6593.2 kV=0.12 Vminpu=0.8 Vmaxpu=1.2 model=1 kW=4.69722938823788 kvar=0.6546008506549251 Phases=1 yearly=res_kw_12125_pu

New Load.load_p17ulv6595_1 conn=wye bus1=p17ulv6595.1 kV=0.12 Vminpu=0.8 Vmaxpu=1.2 model=1 kW=1.6676306342135938 kvar=0.5123446143614628 Phases=1 yearly=res_kw_14135_pu

New Load.load_p17ulv6595_2 conn=wye bus1=p17ulv6595.2 kV=0.12 Vminpu=0.8 Vmaxpu=1.2 model=1 kW=1.6676306342135938 kvar=0.5123446143614628 Phases=1 yearly=res_kw_14135_pu

New Load.load_p17ulv6599_1 conn=wye bus1=p17ulv6599.1 kV=0.12 Vminpu=0.8 Vmaxpu=1.2 model=1 kW=2.1838414120774927 kvar=0.7719548317446643 Phases=1 yearly=res_kw_12610_pu

New Load.load_p17ulv6599_2 conn=wye bus1=p17ulv6599.2 kV=0.12 Vminpu=0.8 Vmaxpu=1.2 model=1 kW=2.1838414120774927 kvar=0.7719548317446643 Phases=1 yearly=res_kw_12610_pu

New Load.load_p17ulv6607_1 conn=wye bus1=p17ulv6607.1 kV=0.12 Vminpu=0.8 Vmaxpu=1.2 model=1 kW=2.0240502132333855 kvar=0.5295456567023789 Phases=1 yearly=res_kw_10487_pu

New Load.load_p17ulv6607_2 conn=wye bus1=p17ulv6607.2 kV=0.12 Vminpu=0.8 Vmaxpu=1.2 model=1 kW=2.0240502132333855 kvar=0.5295456567023789 Phases=1 yearly=res_kw_10487_pu

New Load.load_p17ulv6609_1 conn=wye bus1=p17ulv6609.1 kV=0.12 Vminpu=0.8 Vmaxpu=1.2 model=1 kW=1.9634400440168067 kvar=0.8860831185940086 Phases=1 yearly=res_kw_10838_pu

New Load.load_p17ulv6609_2 conn=wye bus1=p17ulv6609.2 kV=0.12 Vminpu=0.8 Vmaxpu=1.2 model=1 kW=1.9634400440168067 kvar=0.8860831185940086 Phases=1 yearly=res_kw_10838_pu

New Load.load_p17ulv6610_1 conn=wye bus1=p17ulv6561.1 kV=0.12 Vminpu=0.8 Vmaxpu=1.2 model=1 kW=3.297417532176794 kvar=0.2780703813036578 Phases=1 yearly=res_kw_1657_pu

New Load.load_p17ulv6610_2 conn=wye bus1=p17ulv6561.2 kV=0.12 Vminpu=0.8 Vmaxpu=1.2 model=1 kW=3.297417532176794 kvar=0.2780703813036578 Phases=1 yearly=res_kw_1657_pu

New Load.load_p17ulv6619_1 conn=wye bus1=p17ulv6619.1 kV=0.12 Vminpu=0.8 Vmaxpu=1.2 model=1 kW=2.054093584716578 kvar=0.9114545444360403 Phases=1 yearly=res_kw_2763_pu

New Load.load_p17ulv6619_2 conn=wye bus1=p17ulv6619.2 kV=0.12 Vminpu=0.8 Vmaxpu=1.2 model=1 kW=2.054093584716578 kvar=0.9114545444360403 Phases=1 yearly=res_kw_2763_pu

New Load.load_p17ulv6623_1 conn=wye bus1=p17ulv6623.1 kV=0.12 Vminpu=0.8 Vmaxpu=1.2 model=1 kW=1.7684532076448627 kvar=0.7534217786639859 Phases=1 yearly=res_kw_1517_pu

New Load.load_p17ulv6623_2 conn=wye bus1=p17ulv6623.2 kV=0.12 Vminpu=0.8 Vmaxpu=1.2 model=1 kW=1.7684532076448627 kvar=0.7534217786639859 Phases=1 yearly=res_kw_1517_pu

New Load.load_p17ulv6628_1 conn=wye bus1=p17ulv6628.1 kV=0.12 Vminpu=0.8 Vmaxpu=1.2 model=1 kW=4.178802493278684 kvar=1.1784670344199408 Phases=1 yearly=res_kw_13091_pu

New Load.load_p17ulv6628_2 conn=wye bus1=p17ulv6628.2 kV=0.12 Vminpu=0.8 Vmaxpu=1.2 model=1 kW=4.178802493278684 kvar=1.1784670344199408 Phases=1 yearly=res_kw_13091_pu

New Load.load_p17ulv6634_1 conn=wye bus1=p17ulv6634.1 kV=0.12 Vminpu=0.8 Vmaxpu=1.2 model=1 kW=1.7501247929276162 kvar=0.7643109722486057 Phases=1 yearly=res_kw_3954_pu

New Load.load_p17ulv6634_2 conn=wye bus1=p17ulv6634.2 kV=0.12 Vminpu=0.8 Vmaxpu=1.2 model=1 kW=1.7501247929276162 kvar=0.7643109722486057 Phases=1 yearly=res_kw_3954_pu

New Load.load_p17ulv6635_1 conn=wye bus1=p17ulv6635.1 kV=0.12 Vminpu=0.8 Vmaxpu=1.2 model=1 kW=2.054093584716578 kvar=0.9114545444360403 Phases=1 yearly=res_kw_2763_pu

New Load.load_p17ulv6635_2 conn=wye bus1=p17ulv6635.2 kV=0.12 Vminpu=0.8 Vmaxpu=1.2 model=1 kW=2.054093584716578 kvar=0.9114545444360403 Phases=1 yearly=res_kw_2763_pu

New Load.load_p17ulv6638_1 conn=wye bus1=p17ulv6638.1 kV=0.12 Vminpu=0.8 Vmaxpu=1.2 model=1 kW=12.590632425061397 kvar=1.6801877704145016 Phases=1 yearly=res_kw_7616_pu

New Load.load_p17ulv6638_2 conn=wye bus1=p17ulv6638.2 kV=0.12 Vminpu=0.8 Vmaxpu=1.2 model=1 kW=12.590632425061397 kvar=1.6801877704145016 Phases=1 yearly=res_kw_7616_pu

New Load.load_p17ulv6652_1 conn=wye bus1=p17ulv6652.1 kV=0.12 Vminpu=0.8 Vmaxpu=1.2 model=1 kW=2.115569361753181 kvar=0.9348638272793568 Phases=1 yearly=res_kw_7885_pu

New Load.load_p17ulv6652_2 conn=wye bus1=p17ulv6652.2 kV=0.12 Vminpu=0.8 Vmaxpu=1.2 model=1 kW=2.115569361753181 kvar=0.9348638272793568 Phases=1 yearly=res_kw_7885_pu

New Load.load_p17ulv6660_1 conn=wye bus1=p17ulv6660.1 kV=0.12 Vminpu=0.8 Vmaxpu=1.2 model=1 kW=2.175848902321112 kvar=0.8167524537376402 Phases=1 yearly=res_kw_13015_pu

New Load.load_p17ulv6660_2 conn=wye bus1=p17ulv6660.2 kV=0.12 Vminpu=0.8 Vmaxpu=1.2 model=1 kW=2.175848902321112 kvar=0.8167524537376402 Phases=1 yearly=res_kw_13015_pu

New Load.load_p17ulv6670_1 conn=wye bus1=p17ulv6670.1 kV=0.12 Vminpu=0.8 Vmaxpu=1.2 model=1 kW=1.7684532076448627 kvar=0.7534217786639859 Phases=1 yearly=res_kw_1517_pu

New Load.load_p17ulv6670_2 conn=wye bus1=p17ulv6670.2 kV=0.12 Vminpu=0.8 Vmaxpu=1.2 model=1 kW=1.7684532076448627 kvar=0.7534217786639859 Phases=1 yearly=res_kw_1517_pu

New Load.load_p17ulv6675_1 conn=wye bus1=p17ulv6675.1 kV=0.12 Vminpu=0.8 Vmaxpu=1.2 model=1 kW=2.6791078770470578 kvar=1.0782522975400575 Phases=1 yearly=res_kw_14529_pu

New Load.load_p17ulv6675_2 conn=wye bus1=p17ulv6675.2 kV=0.12 Vminpu=0.8 Vmaxpu=1.2 model=1 kW=2.6791078770470578 kvar=1.0782522975400575 Phases=1 yearly=res_kw_14529_pu

New Load.load_p17ulv6676_1 conn=wye bus1=p17ulv6676.1 kV=0.12 Vminpu=0.8 Vmaxpu=1.2 model=1 kW=5.828469853780653 kvar=0.21450007869014182 Phases=1 yearly=res_kw_8883_pu

New Load.load_p17ulv6676_2 conn=wye bus1=p17ulv6676.2 kV=0.12 Vminpu=0.8 Vmaxpu=1.2 model=1 kW=5.828469853780653 kvar=0.21450007869014182 Phases=1 yearly=res_kw_8883_pu

New Load.load_p17ulv6690_1 conn=wye bus1=p17ulv6690.1 kV=0.12 Vminpu=0.8 Vmaxpu=1.2 model=1 kW=2.6224477749097725 kvar=0.939411358234502 Phases=1 yearly=res_kw_6975_pu

New Load.load_p17ulv6690_2 conn=wye bus1=p17ulv6690.2 kV=0.12 Vminpu=0.8 Vmaxpu=1.2 model=1 kW=2.6224477749097725 kvar=0.939411358234502 Phases=1 yearly=res_kw_6975_pu

New Load.load_p17ulv6702_1 conn=wye bus1=p17ulv6702.1 kV=0.12 Vminpu=0.8 Vmaxpu=1.2 model=1 kW=2.08053934867757 kvar=0.19082517830123075 Phases=1 yearly=res_kw_11220_pu

New Load.load_p17ulv6702_2 conn=wye bus1=p17ulv6702.2 kV=0.12 Vminpu=0.8 Vmaxpu=1.2 model=1 kW=2.08053934867757 kvar=0.19082517830123075 Phases=1 yearly=res_kw_11220_pu

New Load.load_p17ulv7920_1 conn=wye bus1=p17ulv7920.1 kV=0.12 Vminpu=0.8 Vmaxpu=1.2 model=1 kW=3.902887215219663 kvar=1.111231385342157 Phases=1 yearly=com_kw_2430_pu

New Load.load_p17ulv7920_2 conn=wye bus1=p17ulv7920.2 kV=0.12 Vminpu=0.8 Vmaxpu=1.2 model=1 kW=3.902887215219663 kvar=1.111231385342157 Phases=1 yearly=com_kw_2430_pu

New Load.load_p17ulv9190_1 conn=wye bus1=p17ulv9190.1 kV=0.12 Vminpu=0.8 Vmaxpu=1.2 model=1 kW=2.383812527298834 kvar=0.7249515140736078 Phases=1 yearly=res_kw_11737_pu

New Load.load_p17ulv9190_2 conn=wye bus1=p17ulv9190.2 kV=0.12 Vminpu=0.8 Vmaxpu=1.2 model=1 kW=2.383812527298834 kvar=0.7249515140736078 Phases=1 yearly=res_kw_11737_pu

New Load.load_p17ulv9192_1 conn=wye bus1=p17ulv9192.1 kV=0.12 Vminpu=0.8 Vmaxpu=1.2 model=1 kW=1.3903606764448309 kvar=0.35989325704970737 Phases=1 yearly=res_kw_5110_pu

New Load.load_p17ulv9192_2 conn=wye bus1=p17ulv9192.2 kV=0.12 Vminpu=0.8 Vmaxpu=1.2 model=1 kW=1.3903606764448309 kvar=0.35989325704970737 Phases=1 yearly=res_kw_5110_pu

New Load.load_p17ulv9196_1 conn=wye bus1=p17ulv9196.1 kV=0.12 Vminpu=0.8 Vmaxpu=1.2 model=1 kW=1.7024371931547229 kvar=0.5884998483090965 Phases=1 yearly=res_kw_7686_pu
