New Loadshape.SFO_38.0111_-121.9348_45_225 npts= 35040 interval=0.25 mult = (file=../../../../../profiles/SFO_38.0111_-121.9348_45_225.csv)

New Loadshape.SFO_38.0111_-121.9348_15_90 npts= 35040 interval=0.25 mult = (file=../../../../../profiles/SFO_38.0111_-121.9348_15_90.csv)

New Loadshape.SFO_37.9742_-121.9348_35_270 npts= 35040 interval=0.25 mult = (file=../../../../../profiles/SFO_37.9742_-121.9348_35_270.csv)

New Loadshape.SFO_37.9742_-121.9348_25_180 npts= 35040 interval=0.25 mult = (file=../../../../../profiles/SFO_37.9742_-121.9348_25_180.csv)

New Loadshape.SFO_38.0111_-121.9348_15_270 npts= 35040 interval=0.25 mult = (file=../../../../../profiles/SFO_38.0111_-121.9348_15_270.csv)

New Loadshape.SFO_37.9742_-121.9348_15_180 npts= 35040 interval=0.25 mult = (file=../../../../../profiles/SFO_37.9742_-121.9348_15_180.csv)

New Loadshape.SFO_38.0111_-121.9348_25_90 npts= 35040 interval=0.25 mult = (file=../../../../../profiles/SFO_38.0111_-121.9348_25_90.csv)

New Loadshape.SFO_37.9742_-121.9348_25_90 npts= 35040 interval=0.25 mult = (file=../../../../../profiles/SFO_37.9742_-121.9348_25_90.csv)

New Loadshape.SFO_37.9742_-121.9348_45_225 npts= 35040 interval=0.25 mult = (file=../../../../../profiles/SFO_37.9742_-121.9348_45_225.csv)

New Loadshape.SFO_37.9742_-121.9348_25_225 npts= 35040 interval=0.25 mult = (file=../../../../../profiles/SFO_37.9742_-121.9348_25_225.csv)

New Loadshape.SFO_38.0111_-121.9348_25_225 npts= 35040 interval=0.25 mult = (file=../../../../../profiles/SFO_38.0111_-121.9348_25_225.csv)

New Loadshape.SFO_37.9742_-121.9348_25_135 npts= 35040 interval=0.25 mult = (file=../../../../../profiles/SFO_37.9742_-121.9348_25_135.csv)

New Loadshape.SFO_37.9742_-121.9348_15_135 npts= 35040 interval=0.25 mult = (file=../../../../../profiles/SFO_37.9742_-121.9348_15_135.csv)

New Loadshape.SFO_38.0111_-121.9348_15_180 npts= 35040 interval=0.25 mult = (file=../../../../../profiles/SFO_38.0111_-121.9348_15_180.csv)

New Loadshape.SFO_38.0111_-121.9348_35_270 npts= 35040 interval=0.25 mult = (file=../../../../../profiles/SFO_38.0111_-121.9348_35_270.csv)

New Loadshape.SFO_38.0111_-121.9348_25_135 npts= 35040 interval=0.25 mult = (file=../../../../../profiles/SFO_38.0111_-121.9348_25_135.csv)

New Loadshape.SFO_37.9742_-121.9348_35_180 npts= 35040 interval=0.25 mult = (file=../../../../../profiles/SFO_37.9742_-121.9348_35_180.csv)

New Loadshape.SFO_38.0111_-121.9348_45_180 npts= 35040 interval=0.25 mult = (file=../../../../../profiles/SFO_38.0111_-121.9348_45_180.csv)

New Loadshape.SFO_38.0111_-121.9348_25_270 npts= 35040 interval=0.25 mult = (file=../../../../../profiles/SFO_38.0111_-121.9348_25_270.csv)

New Loadshape.SFO_37.9742_-121.9348_35_135 npts= 35040 interval=0.25 mult = (file=../../../../../profiles/SFO_37.9742_-121.9348_35_135.csv)

New Loadshape.SFO_37.9742_-121.9348_15_270 npts= 35040 interval=0.25 mult = (file=../../../../../profiles/SFO_37.9742_-121.9348_15_270.csv)

New Loadshape.SFO_37.9742_-121.9348_15_225 npts= 35040 interval=0.25 mult = (file=../../../../../profiles/SFO_37.9742_-121.9348_15_225.csv)

New Loadshape.SFO_38.0111_-121.9348_15_225 npts= 35040 interval=0.25 mult = (file=../../../../../profiles/SFO_38.0111_-121.9348_15_225.csv)

New Loadshape.SFO_38.0111_-121.9348_25_180 npts= 35040 interval=0.25 mult = (file=../../../../../profiles/SFO_38.0111_-121.9348_25_180.csv)

New Loadshape.SFO_37.9742_-121.9348_25_270 npts= 35040 interval=0.25 mult = (file=../../../../../profiles/SFO_37.9742_-121.9348_25_270.csv)

New Loadshape.SFO_37.9742_-121.9348_35_225 npts= 35040 interval=0.25 mult = (file=../../../../../profiles/SFO_37.9742_-121.9348_35_225.csv)

New Loadshape.SFO_38.0111_-121.9348_15_135 npts= 35040 interval=0.25 mult = (file=../../../../../profiles/SFO_38.0111_-121.9348_15_135.csv)

New Loadshape.SFO_37.9742_-121.9348_15_90 npts= 35040 interval=0.25 mult = (file=../../../../../profiles/SFO_37.9742_-121.9348_15_90.csv)

New Loadshape.SFO_37.9742_-121.9348_35_90 npts= 35040 interval=0.25 mult = (file=../../../../../profiles/SFO_37.9742_-121.9348_35_90.csv)

New Loadshape.SFO_38.0111_-121.9348_35_225 npts= 35040 interval=0.25 mult = (file=../../../../../profiles/SFO_38.0111_-121.9348_35_225.csv)

New Loadshape.SFO_37.9742_-121.9348_45_135 npts= 35040 interval=0.25 mult = (file=../../../../../profiles/SFO_37.9742_-121.9348_45_135.csv)

New Loadshape.SFO_38.0111_-121.9348_35_180 npts= 35040 interval=0.25 mult = (file=../../../../../profiles/SFO_38.0111_-121.9348_35_180.csv)

New Loadshape.SFO_38.0111_-121.9348_35_135 npts= 35040 interval=0.25 mult = (file=../../../../../profiles/SFO_38.0111_-121.9348_35_135.csv)

New Loadshape.SFO_38.0111_-121.9348_35_90 npts= 35040 interval=0.25 mult = (file=../../../../../profiles/SFO_38.0111_-121.9348_35_90.csv)

New Loadshape.SFO_37.9742_-121.9348_45_180 npts= 35040 interval=0.25 mult = (file=../../../../../profiles/SFO_37.9742_-121.9348_45_180.csv)

New Loadshape.SFO_38.0111_-121.9348_45_270 npts= 35040 interval=0.25 mult = (file=../../../../../profiles/SFO_38.0111_-121.9348_45_270.csv)

New Loadshape.SFO_37.9742_-121.9348_45_270 npts= 35040 interval=0.25 mult = (file=../../../../../profiles/SFO_37.9742_-121.9348_45_270.csv)

New Loadshape.SFO_38.0111_-121.9348_45_135 npts= 35040 interval=0.25 mult = (file=../../../../../profiles/SFO_38.0111_-121.9348_45_135.csv)

New Loadshape.res_kw_14345_pu npts= 35040 interval=0.25 mult = (file=../../../../../profiles/res_kw_14345_pu.csv) qmult = (file=../../../../../profiles/res_kvar_14345_pu.csv)

New Loadshape.res_kw_12062_pu npts= 35040 interval=0.25 mult = (file=../../../../../profiles/res_kw_12062_pu.csv) qmult = (file=../../../../../profiles/res_kvar_12062_pu.csv)

New Loadshape.res_kw_4681_pu npts= 35040 interval=0.25 mult = (file=../../../../../profiles/res_kw_4681_pu.csv) qmult = (file=../../../../../profiles/res_kvar_4681_pu.csv)

New Loadshape.res_kw_2282_pu npts= 35040 interval=0.25 mult = (file=../../../../../profiles/res_kw_2282_pu.csv) qmult = (file=../../../../../profiles/res_kvar_2282_pu.csv)

New Loadshape.res_kw_4414_pu npts= 35040 interval=0.25 mult = (file=../../../../../profiles/res_kw_4414_pu.csv) qmult = (file=../../../../../profiles/res_kvar_4414_pu.csv)

New Loadshape.res_kw_11868_pu npts= 35040 interval=0.25 mult = (file=../../../../../profiles/res_kw_11868_pu.csv) qmult = (file=../../../../../profiles/res_kvar_11868_pu.csv)

New Loadshape.res_kw_4011_pu npts= 35040 interval=0.25 mult = (file=../../../../../profiles/res_kw_4011_pu.csv) qmult = (file=../../../../../profiles/res_kvar_4011_pu.csv)

New Loadshape.res_kw_6602_pu npts= 35040 interval=0.25 mult = (file=../../../../../profiles/res_kw_6602_pu.csv) qmult = (file=../../../../../profiles/res_kvar_6602_pu.csv)

New Loadshape.res_kw_9896_pu npts= 35040 interval=0.25 mult = (file=../../../../../profiles/res_kw_9896_pu.csv) qmult = (file=../../../../../profiles/res_kvar_9896_pu.csv)

New Loadshape.res_kw_10386_pu npts= 35040 interval=0.25 mult = (file=../../../../../profiles/res_kw_10386_pu.csv) qmult = (file=../../../../../profiles/res_kvar_10386_pu.csv)

New Loadshape.res_kw_9428_pu npts= 35040 interval=0.25 mult = (file=../../../../../profiles/res_kw_9428_pu.csv) qmult = (file=../../../../../profiles/res_kvar_9428_pu.csv)

New Loadshape.res_kw_11842_pu npts= 35040 interval=0.25 mult = (file=../../../../../profiles/res_kw_11842_pu.csv) qmult = (file=../../../../../profiles/res_kvar_11842_pu.csv)

New Loadshape.res_kw_7631_pu npts= 35040 interval=0.25 mult = (file=../../../../../profiles/res_kw_7631_pu.csv) qmult = (file=../../../../../profiles/res_kvar_7631_pu.csv)

New Loadshape.res_kw_7907_pu npts= 35040 interval=0.25 mult = (file=../../../../../profiles/res_kw_7907_pu.csv) qmult = (file=../../../../../profiles/res_kvar_7907_pu.csv)

New Loadshape.res_kw_13507_pu npts= 35040 interval=0.25 mult = (file=../../../../../profiles/res_kw_13507_pu.csv) qmult = (file=../../../../../profiles/res_kvar_13507_pu.csv)

New Loadshape.res_kw_14289_pu npts= 35040 interval=0.25 mult = (file=../../../../../profiles/res_kw_14289_pu.csv) qmult = (file=../../../../../profiles/res_kvar_14289_pu.csv)

New Loadshape.res_kw_15225_pu npts= 35040 interval=0.25 mult = (file=../../../../../profiles/res_kw_15225_pu.csv) qmult = (file=../../../../../profiles/res_kvar_15225_pu.csv)

New Loadshape.res_kw_2868_pu npts= 35040 interval=0.25 mult = (file=../../../../../profiles/res_kw_2868_pu.csv) qmult = (file=../../../../../profiles/res_kvar_2868_pu.csv)

New Loadshape.res_kw_13167_pu npts= 35040 interval=0.25 mult = (file=../../../../../profiles/res_kw_13167_pu.csv) qmult = (file=../../../../../profiles/res_kvar_13167_pu.csv)

New Loadshape.res_kw_1389_pu npts= 35040 interval=0.25 mult = (file=../../../../../profiles/res_kw_1389_pu.csv) qmult = (file=../../../../../profiles/res_kvar_1389_pu.csv)

New Loadshape.res_kw_8494_pu npts= 35040 interval=0.25 mult = (file=../../../../../profiles/res_kw_8494_pu.csv) qmult = (file=../../../../../profiles/res_kvar_8494_pu.csv)

New Loadshape.res_kw_12348_pu npts= 35040 interval=0.25 mult = (file=../../../../../profiles/res_kw_12348_pu.csv) qmult = (file=../../../../../profiles/res_kvar_12348_pu.csv)

New Loadshape.res_kw_5668_pu npts= 35040 interval=0.25 mult = (file=../../../../../profiles/res_kw_5668_pu.csv) qmult = (file=../../../../../profiles/res_kvar_5668_pu.csv)

New Loadshape.res_kw_2085_pu npts= 35040 interval=0.25 mult = (file=../../../../../profiles/res_kw_2085_pu.csv) qmult = (file=../../../../../profiles/res_kvar_2085_pu.csv)

New Loadshape.res_kw_1263_pu npts= 35040 interval=0.25 mult = (file=../../../../../profiles/res_kw_1263_pu.csv) qmult = (file=../../../../../profiles/res_kvar_1263_pu.csv)

New Loadshape.res_kw_5069_pu npts= 35040 interval=0.25 mult = (file=../../../../../profiles/res_kw_5069_pu.csv) qmult = (file=../../../../../profiles/res_kvar_5069_pu.csv)

New Loadshape.res_kw_11288_pu npts= 35040 interval=0.25 mult = (file=../../../../../profiles/res_kw_11288_pu.csv) qmult = (file=../../../../../profiles/res_kvar_11288_pu.csv)

New Loadshape.res_kw_14866_pu npts= 35040 interval=0.25 mult = (file=../../../../../profiles/res_kw_14866_pu.csv) qmult = (file=../../../../../profiles/res_kvar_14866_pu.csv)

New Loadshape.res_kw_11802_pu npts= 35040 interval=0.25 mult = (file=../../../../../profiles/res_kw_11802_pu.csv) qmult = (file=../../../../../profiles/res_kvar_11802_pu.csv)

New Loadshape.res_kw_10710_pu npts= 35040 interval=0.25 mult = (file=../../../../../profiles/res_kw_10710_pu.csv) qmult = (file=../../../../../profiles/res_kvar_10710_pu.csv)

New Loadshape.res_kw_11220_pu npts= 35040 interval=0.25 mult = (file=../../../../../profiles/res_kw_11220_pu.csv) qmult = (file=../../../../../profiles/res_kvar_11220_pu.csv)

New Loadshape.res_kw_3954_pu npts= 35040 interval=0.25 mult = (file=../../../../../profiles/res_kw_3954_pu.csv) qmult = (file=../../../../../profiles/res_kvar_3954_pu.csv)

New Loadshape.res_kw_4783_pu npts= 35040 interval=0.25 mult = (file=../../../../../profiles/res_kw_4783_pu.csv) qmult = (file=../../../../../profiles/res_kvar_4783_pu.csv)

New Loadshape.res_kw_2453_pu npts= 35040 interval=0.25 mult = (file=../../../../../profiles/res_kw_2453_pu.csv) qmult = (file=../../../../../profiles/res_kvar_2453_pu.csv)

New Loadshape.res_kw_5110_pu npts= 35040 interval=0.25 mult = (file=../../../../../profiles/res_kw_5110_pu.csv) qmult = (file=../../../../../profiles/res_kvar_5110_pu.csv)

New Loadshape.res_kw_13015_pu npts= 35040 interval=0.25 mult = (file=../../../../../profiles/res_kw_13015_pu.csv) qmult = (file=../../../../../profiles/res_kvar_13015_pu.csv)

New Loadshape.res_kw_6096_pu npts= 35040 interval=0.25 mult = (file=../../../../../profiles/res_kw_6096_pu.csv) qmult = (file=../../../../../profiles/res_kvar_6096_pu.csv)

New Loadshape.res_kw_588_pu npts= 35040 interval=0.25 mult = (file=../../../../../profiles/res_kw_588_pu.csv) qmult = (file=../../../../../profiles/res_kvar_588_pu.csv)

New Loadshape.res_kw_9813_pu npts= 35040 interval=0.25 mult = (file=../../../../../profiles/res_kw_9813_pu.csv) qmult = (file=../../../../../profiles/res_kvar_9813_pu.csv)

New Loadshape.res_kw_9131_pu npts= 35040 interval=0.25 mult = (file=../../../../../profiles/res_kw_9131_pu.csv) qmult = (file=../../../../../profiles/res_kvar_9131_pu.csv)

New Loadshape.res_kw_6563_pu npts= 35040 interval=0.25 mult = (file=../../../../../profiles/res_kw_6563_pu.csv) qmult = (file=../../../../../profiles/res_kvar_6563_pu.csv)

New Loadshape.res_kw_3201_pu npts= 35040 interval=0.25 mult = (file=../../../../../profiles/res_kw_3201_pu.csv) qmult = (file=../../../../../profiles/res_kvar_3201_pu.csv)

New Loadshape.res_kw_5724_pu npts= 35040 interval=0.25 mult = (file=../../../../../profiles/res_kw_5724_pu.csv) qmult = (file=../../../../../profiles/res_kvar_5724_pu.csv)

New Loadshape.res_kw_5155_pu npts= 35040 interval=0.25 mult = (file=../../../../../profiles/res_kw_5155_pu.csv) qmult = (file=../../../../../profiles/res_kvar_5155_pu.csv)

New Loadshape.res_kw_8820_pu npts= 35040 interval=0.25 mult = (file=../../../../../profiles/res_kw_8820_pu.csv) qmult = (file=../../../../../profiles/res_kvar_8820_pu.csv)

New Loadshape.res_kw_6607_pu npts= 35040 interval=0.25 mult = (file=../../../../../profiles/res_kw_6607_pu.csv) qmult = (file=../../../../../profiles/res_kvar_6607_pu.csv)

New Loadshape.res_kw_13510_pu npts= 35040 interval=0.25 mult = (file=../../../../../profiles/res_kw_13510_pu.csv) qmult = (file=../../../../../profiles/res_kvar_13510_pu.csv)

New Loadshape.res_kw_1089_pu npts= 35040 interval=0.25 mult = (file=../../../../../profiles/res_kw_1089_pu.csv) qmult = (file=../../../../../profiles/res_kvar_1089_pu.csv)

New Loadshape.res_kw_8669_pu npts= 35040 interval=0.25 mult = (file=../../../../../profiles/res_kw_8669_pu.csv) qmult = (file=../../../../../profiles/res_kvar_8669_pu.csv)

New Loadshape.res_kw_10051_pu npts= 35040 interval=0.25 mult = (file=../../../../../profiles/res_kw_10051_pu.csv) qmult = (file=../../../../../profiles/res_kvar_10051_pu.csv)

New Loadshape.res_kw_9331_pu npts= 35040 interval=0.25 mult = (file=../../../../../profiles/res_kw_9331_pu.csv) qmult = (file=../../../../../profiles/res_kvar_9331_pu.csv)

New Loadshape.res_kw_3376_pu npts= 35040 interval=0.25 mult = (file=../../../../../profiles/res_kw_3376_pu.csv) qmult = (file=../../../../../profiles/res_kvar_3376_pu.csv)

New Loadshape.res_kw_2603_pu npts= 35040 interval=0.25 mult = (file=../../../../../profiles/res_kw_2603_pu.csv) qmult = (file=../../../../../profiles/res_kvar_2603_pu.csv)

New Loadshape.res_kw_13091_pu npts= 35040 interval=0.25 mult = (file=../../../../../profiles/res_kw_13091_pu.csv) qmult = (file=../../../../../profiles/res_kvar_13091_pu.csv)

New Loadshape.res_kw_4402_pu npts= 35040 interval=0.25 mult = (file=../../../../../profiles/res_kw_4402_pu.csv) qmult = (file=../../../../../profiles/res_kvar_4402_pu.csv)

New Loadshape.res_kw_3118_pu npts= 35040 interval=0.25 mult = (file=../../../../../profiles/res_kw_3118_pu.csv) qmult = (file=../../../../../profiles/res_kvar_3118_pu.csv)

New Loadshape.res_kw_14077_pu npts= 35040 interval=0.25 mult = (file=../../../../../profiles/res_kw_14077_pu.csv) qmult = (file=../../../../../profiles/res_kvar_14077_pu.csv)

New Loadshape.res_kw_8192_pu npts= 35040 interval=0.25 mult = (file=../../../../../profiles/res_kw_8192_pu.csv) qmult = (file=../../../../../profiles/res_kvar_8192_pu.csv)

New Loadshape.res_kw_12125_pu npts= 35040 interval=0.25 mult = (file=../../../../../profiles/res_kw_12125_pu.csv) qmult = (file=../../../../../profiles/res_kvar_12125_pu.csv)

New Loadshape.res_kw_14135_pu npts= 35040 interval=0.25 mult = (file=../../../../../profiles/res_kw_14135_pu.csv) qmult = (file=../../../../../profiles/res_kvar_14135_pu.csv)

New Loadshape.res_kw_12610_pu npts= 35040 interval=0.25 mult = (file=../../../../../profiles/res_kw_12610_pu.csv) qmult = (file=../../../../../profiles/res_kvar_12610_pu.csv)

New Loadshape.res_kw_10487_pu npts= 35040 interval=0.25 mult = (file=../../../../../profiles/res_kw_10487_pu.csv) qmult = (file=../../../../../profiles/res_kvar_10487_pu.csv)

New Loadshape.res_kw_10838_pu npts= 35040 interval=0.25 mult = (file=../../../../../profiles/res_kw_10838_pu.csv) qmult = (file=../../../../../profiles/res_kvar_10838_pu.csv)

New Loadshape.res_kw_1657_pu npts= 35040 interval=0.25 mult = (file=../../../../../profiles/res_kw_1657_pu.csv) qmult = (file=../../../../../profiles/res_kvar_1657_pu.csv)

New Loadshape.res_kw_2763_pu npts= 35040 interval=0.25 mult = (file=../../../../../profiles/res_kw_2763_pu.csv) qmult = (file=../../../../../profiles/res_kvar_2763_pu.csv)

New Loadshape.res_kw_1517_pu npts= 35040 interval=0.25 mult = (file=../../../../../profiles/res_kw_1517_pu.csv) qmult = (file=../../../../../profiles/res_kvar_1517_pu.csv)

New Loadshape.res_kw_7616_pu npts= 35040 interval=0.25 mult = (file=../../../../../profiles/res_kw_7616_pu.csv) qmult = (file=../../../../../profiles/res_kvar_7616_pu.csv)

New Loadshape.res_kw_7885_pu npts= 35040 interval=0.25 mult = (file=../../../../../profiles/res_kw_7885_pu.csv) qmult = (file=../../../../../profiles/res_kvar_7885_pu.csv)

New Loadshape.res_kw_14529_pu npts= 35040 interval=0.25 mult = (file=../../../../../profiles/res_kw_14529_pu.csv) qmult = (file=../../../../../profiles/res_kvar_14529_pu.csv)

New Loadshape.res_kw_8883_pu npts= 35040 interval=0.25 mult = (file=../../../../../profiles/res_kw_8883_pu.csv) qmult = (file=../../../../../profiles/res_kvar_8883_pu.csv)

New Loadshape.res_kw_6975_pu npts= 35040 interval=0.25 mult = (file=../../../../../profiles/res_kw_6975_pu.csv) qmult = (file=../../../../../profiles/res_kvar_6975_pu.csv)

New Loadshape.res_kw_11737_pu npts= 35040 interval=0.25 mult = (file=../../../../../profiles/res_kw_11737_pu.csv) qmult = (file=../../../../../profiles/res_kvar_11737_pu.csv)

New Loadshape.res_kw_7686_pu npts= 35040 interval=0.25 mult = (file=../../../../../profiles/res_kw_7686_pu.csv) qmult = (file=../../../../../profiles/res_kvar_7686_pu.csv)

New Loadshape.res_kw_982_pu npts= 35040 interval=0.25 mult = (file=../../../../../profiles/res_kw_982_pu.csv) qmult = (file=../../../../../profiles/res_kvar_982_pu.csv)

New Loadshape.res_kw_4546_pu npts= 35040 interval=0.25 mult = (file=../../../../../profiles/res_kw_4546_pu.csv) qmult = (file=../../../../../profiles/res_kvar_4546_pu.csv)

New Loadshape.res_kw_4327_pu npts= 35040 interval=0.25 mult = (file=../../../../../profiles/res_kw_4327_pu.csv) qmult = (file=../../../../../profiles/res_kvar_4327_pu.csv)

New Loadshape.res_kw_4811_pu npts= 35040 interval=0.25 mult = (file=../../../../../profiles/res_kw_4811_pu.csv) qmult = (file=../../../../../profiles/res_kvar_4811_pu.csv)

New Loadshape.res_kw_5966_pu npts= 35040 interval=0.25 mult = (file=../../../../../profiles/res_kw_5966_pu.csv) qmult = (file=../../../../../profiles/res_kvar_5966_pu.csv)

New Loadshape.res_kw_1769_pu npts= 35040 interval=0.25 mult = (file=../../../../../profiles/res_kw_1769_pu.csv) qmult = (file=../../../../../profiles/res_kvar_1769_pu.csv)

New Loadshape.res_kw_14095_pu npts= 35040 interval=0.25 mult = (file=../../../../../profiles/res_kw_14095_pu.csv) qmult = (file=../../../../../profiles/res_kvar_14095_pu.csv)

New Loadshape.res_kw_10641_pu npts= 35040 interval=0.25 mult = (file=../../../../../profiles/res_kw_10641_pu.csv) qmult = (file=../../../../../profiles/res_kvar_10641_pu.csv)

New Loadshape.res_kw_9871_pu npts= 35040 interval=0.25 mult = (file=../../../../../profiles/res_kw_9871_pu.csv) qmult = (file=../../../../../profiles/res_kvar_9871_pu.csv)

New Loadshape.res_kw_6262_pu npts= 35040 interval=0.25 mult = (file=../../../../../profiles/res_kw_6262_pu.csv) qmult = (file=../../../../../profiles/res_kvar_6262_pu.csv)

New Loadshape.res_kw_8836_pu npts= 35040 interval=0.25 mult = (file=../../../../../profiles/res_kw_8836_pu.csv) qmult = (file=../../../../../profiles/res_kvar_8836_pu.csv)

New Loadshape.res_kw_2345_pu npts= 35040 interval=0.25 mult = (file=../../../../../profiles/res_kw_2345_pu.csv) qmult = (file=../../../../../profiles/res_kvar_2345_pu.csv)

New Loadshape.res_kw_13338_pu npts= 35040 interval=0.25 mult = (file=../../../../../profiles/res_kw_13338_pu.csv) qmult = (file=../../../../../profiles/res_kvar_13338_pu.csv)

New Loadshape.res_kw_7476_pu npts= 35040 interval=0.25 mult = (file=../../../../../profiles/res_kw_7476_pu.csv) qmult = (file=../../../../../profiles/res_kvar_7476_pu.csv)

New Loadshape.res_kw_2859_pu npts= 35040 interval=0.25 mult = (file=../../../../../profiles/res_kw_2859_pu.csv) qmult = (file=../../../../../profiles/res_kvar_2859_pu.csv)

New Loadshape.res_kw_4108_pu npts= 35040 interval=0.25 mult = (file=../../../../../profiles/res_kw_4108_pu.csv) qmult = (file=../../../../../profiles/res_kvar_4108_pu.csv)

New Loadshape.res_kw_10515_pu npts= 35040 interval=0.25 mult = (file=../../../../../profiles/res_kw_10515_pu.csv) qmult = (file=../../../../../profiles/res_kvar_10515_pu.csv)

New Loadshape.res_kw_15085_pu npts= 35040 interval=0.25 mult = (file=../../../../../profiles/res_kw_15085_pu.csv) qmult = (file=../../../../../profiles/res_kvar_15085_pu.csv)

New Loadshape.res_kw_13258_pu npts= 35040 interval=0.25 mult = (file=../../../../../profiles/res_kw_13258_pu.csv) qmult = (file=../../../../../profiles/res_kvar_13258_pu.csv)

New Loadshape.res_kw_4922_pu npts= 35040 interval=0.25 mult = (file=../../../../../profiles/res_kw_4922_pu.csv) qmult = (file=../../../../../profiles/res_kvar_4922_pu.csv)

New Loadshape.res_kw_4670_pu npts= 35040 interval=0.25 mult = (file=../../../../../profiles/res_kw_4670_pu.csv) qmult = (file=../../../../../profiles/res_kvar_4670_pu.csv)

New Loadshape.res_kw_600_pu npts= 35040 interval=0.25 mult = (file=../../../../../profiles/res_kw_600_pu.csv) qmult = (file=../../../../../profiles/res_kvar_600_pu.csv)

New Loadshape.res_kw_14615_pu npts= 35040 interval=0.25 mult = (file=../../../../../profiles/res_kw_14615_pu.csv) qmult = (file=../../../../../profiles/res_kvar_14615_pu.csv)

New Loadshape.res_kw_6802_pu npts= 35040 interval=0.25 mult = (file=../../../../../profiles/res_kw_6802_pu.csv) qmult = (file=../../../../../profiles/res_kvar_6802_pu.csv)

New Loadshape.res_kw_1201_pu npts= 35040 interval=0.25 mult = (file=../../../../../profiles/res_kw_1201_pu.csv) qmult = (file=../../../../../profiles/res_kvar_1201_pu.csv)

New Loadshape.res_kw_1949_pu npts= 35040 interval=0.25 mult = (file=../../../../../profiles/res_kw_1949_pu.csv) qmult = (file=../../../../../profiles/res_kvar_1949_pu.csv)

New Loadshape.res_kw_13271_pu npts= 35040 interval=0.25 mult = (file=../../../../../profiles/res_kw_13271_pu.csv) qmult = (file=../../../../../profiles/res_kvar_13271_pu.csv)

New Loadshape.res_kw_200_pu npts= 35040 interval=0.25 mult = (file=../../../../../profiles/res_kw_200_pu.csv) qmult = (file=../../../../../profiles/res_kvar_200_pu.csv)

New Loadshape.res_kw_5369_pu npts= 35040 interval=0.25 mult = (file=../../../../../profiles/res_kw_5369_pu.csv) qmult = (file=../../../../../profiles/res_kvar_5369_pu.csv)

New Loadshape.res_kw_6313_pu npts= 35040 interval=0.25 mult = (file=../../../../../profiles/res_kw_6313_pu.csv) qmult = (file=../../../../../profiles/res_kvar_6313_pu.csv)

New Loadshape.res_kw_3262_pu npts= 35040 interval=0.25 mult = (file=../../../../../profiles/res_kw_3262_pu.csv) qmult = (file=../../../../../profiles/res_kvar_3262_pu.csv)

New Loadshape.res_kw_3038_pu npts= 35040 interval=0.25 mult = (file=../../../../../profiles/res_kw_3038_pu.csv) qmult = (file=../../../../../profiles/res_kvar_3038_pu.csv)

New Loadshape.res_kw_6166_pu npts= 35040 interval=0.25 mult = (file=../../../../../profiles/res_kw_6166_pu.csv) qmult = (file=../../../../../profiles/res_kvar_6166_pu.csv)

New Loadshape.res_kw_7596_pu npts= 35040 interval=0.25 mult = (file=../../../../../profiles/res_kw_7596_pu.csv) qmult = (file=../../../../../profiles/res_kvar_7596_pu.csv)

New Loadshape.res_kw_5417_pu npts= 35040 interval=0.25 mult = (file=../../../../../profiles/res_kw_5417_pu.csv) qmult = (file=../../../../../profiles/res_kvar_5417_pu.csv)

New Loadshape.res_kw_1829_pu npts= 35040 interval=0.25 mult = (file=../../../../../profiles/res_kw_1829_pu.csv) qmult = (file=../../../../../profiles/res_kvar_1829_pu.csv)

New Loadshape.res_kw_3977_pu npts= 35040 interval=0.25 mult = (file=../../../../../profiles/res_kw_3977_pu.csv) qmult = (file=../../../../../profiles/res_kvar_3977_pu.csv)

New Loadshape.res_kw_59_pu npts= 35040 interval=0.25 mult = (file=../../../../../profiles/res_kw_59_pu.csv) qmult = (file=../../../../../profiles/res_kvar_59_pu.csv)

New Loadshape.res_kw_6308_pu npts= 35040 interval=0.25 mult = (file=../../../../../profiles/res_kw_6308_pu.csv) qmult = (file=../../../../../profiles/res_kvar_6308_pu.csv)

New Loadshape.res_kw_4734_pu npts= 35040 interval=0.25 mult = (file=../../../../../profiles/res_kw_4734_pu.csv) qmult = (file=../../../../../profiles/res_kvar_4734_pu.csv)

New Loadshape.res_kw_2947_pu npts= 35040 interval=0.25 mult = (file=../../../../../profiles/res_kw_2947_pu.csv) qmult = (file=../../../../../profiles/res_kvar_2947_pu.csv)

New Loadshape.res_kw_14411_pu npts= 35040 interval=0.25 mult = (file=../../../../../profiles/res_kw_14411_pu.csv) qmult = (file=../../../../../profiles/res_kvar_14411_pu.csv)

New Loadshape.res_kw_12911_pu npts= 35040 interval=0.25 mult = (file=../../../../../profiles/res_kw_12911_pu.csv) qmult = (file=../../../../../profiles/res_kvar_12911_pu.csv)

New Loadshape.res_kw_12981_pu npts= 35040 interval=0.25 mult = (file=../../../../../profiles/res_kw_12981_pu.csv) qmult = (file=../../../../../profiles/res_kvar_12981_pu.csv)

New Loadshape.res_kw_8349_pu npts= 35040 interval=0.25 mult = (file=../../../../../profiles/res_kw_8349_pu.csv) qmult = (file=../../../../../profiles/res_kvar_8349_pu.csv)

New Loadshape.res_kw_7029_pu npts= 35040 interval=0.25 mult = (file=../../../../../profiles/res_kw_7029_pu.csv) qmult = (file=../../../../../profiles/res_kvar_7029_pu.csv)

New Loadshape.res_kw_13866_pu npts= 35040 interval=0.25 mult = (file=../../../../../profiles/res_kw_13866_pu.csv) qmult = (file=../../../../../profiles/res_kvar_13866_pu.csv)

New Loadshape.res_kw_822_pu npts= 35040 interval=0.25 mult = (file=../../../../../profiles/res_kw_822_pu.csv) qmult = (file=../../../../../profiles/res_kvar_822_pu.csv)

New Loadshape.res_kw_13532_pu npts= 35040 interval=0.25 mult = (file=../../../../../profiles/res_kw_13532_pu.csv) qmult = (file=../../../../../profiles/res_kvar_13532_pu.csv)

New Loadshape.res_kw_14093_pu npts= 35040 interval=0.25 mult = (file=../../../../../profiles/res_kw_14093_pu.csv) qmult = (file=../../../../../profiles/res_kvar_14093_pu.csv)

New Loadshape.res_kw_8466_pu npts= 35040 interval=0.25 mult = (file=../../../../../profiles/res_kw_8466_pu.csv) qmult = (file=../../../../../profiles/res_kvar_8466_pu.csv)

New Loadshape.res_kw_7851_pu npts= 35040 interval=0.25 mult = (file=../../../../../profiles/res_kw_7851_pu.csv) qmult = (file=../../../../../profiles/res_kvar_7851_pu.csv)

New Loadshape.res_kw_4694_pu npts= 35040 interval=0.25 mult = (file=../../../../../profiles/res_kw_4694_pu.csv) qmult = (file=../../../../../profiles/res_kvar_4694_pu.csv)

New Loadshape.res_kw_7001_pu npts= 35040 interval=0.25 mult = (file=../../../../../profiles/res_kw_7001_pu.csv) qmult = (file=../../../../../profiles/res_kvar_7001_pu.csv)

New Loadshape.res_kw_2314_pu npts= 35040 interval=0.25 mult = (file=../../../../../profiles/res_kw_2314_pu.csv) qmult = (file=../../../../../profiles/res_kvar_2314_pu.csv)

New Loadshape.res_kw_12803_pu npts= 35040 interval=0.25 mult = (file=../../../../../profiles/res_kw_12803_pu.csv) qmult = (file=../../../../../profiles/res_kvar_12803_pu.csv)

New Loadshape.res_kw_9301_pu npts= 35040 interval=0.25 mult = (file=../../../../../profiles/res_kw_9301_pu.csv) qmult = (file=../../../../../profiles/res_kvar_9301_pu.csv)

New Loadshape.res_kw_9908_pu npts= 35040 interval=0.25 mult = (file=../../../../../profiles/res_kw_9908_pu.csv) qmult = (file=../../../../../profiles/res_kvar_9908_pu.csv)

New Loadshape.res_kw_2223_pu npts= 35040 interval=0.25 mult = (file=../../../../../profiles/res_kw_2223_pu.csv) qmult = (file=../../../../../profiles/res_kvar_2223_pu.csv)

New Loadshape.res_kw_12755_pu npts= 35040 interval=0.25 mult = (file=../../../../../profiles/res_kw_12755_pu.csv) qmult = (file=../../../../../profiles/res_kvar_12755_pu.csv)

New Loadshape.res_kw_643_pu npts= 35040 interval=0.25 mult = (file=../../../../../profiles/res_kw_643_pu.csv) qmult = (file=../../../../../profiles/res_kvar_643_pu.csv)

New Loadshape.res_kw_7264_pu npts= 35040 interval=0.25 mult = (file=../../../../../profiles/res_kw_7264_pu.csv) qmult = (file=../../../../../profiles/res_kvar_7264_pu.csv)

New Loadshape.res_kw_367_pu npts= 35040 interval=0.25 mult = (file=../../../../../profiles/res_kw_367_pu.csv) qmult = (file=../../../../../profiles/res_kvar_367_pu.csv)

New Loadshape.res_kw_2021_pu npts= 35040 interval=0.25 mult = (file=../../../../../profiles/res_kw_2021_pu.csv) qmult = (file=../../../../../profiles/res_kvar_2021_pu.csv)

New Loadshape.res_kw_2084_pu npts= 35040 interval=0.25 mult = (file=../../../../../profiles/res_kw_2084_pu.csv) qmult = (file=../../../../../profiles/res_kvar_2084_pu.csv)

New Loadshape.res_kw_839_pu npts= 35040 interval=0.25 mult = (file=../../../../../profiles/res_kw_839_pu.csv) qmult = (file=../../../../../profiles/res_kvar_839_pu.csv)

New Loadshape.res_kw_10555_pu npts= 35040 interval=0.25 mult = (file=../../../../../profiles/res_kw_10555_pu.csv) qmult = (file=../../../../../profiles/res_kvar_10555_pu.csv)

New Loadshape.res_kw_4012_pu npts= 35040 interval=0.25 mult = (file=../../../../../profiles/res_kw_4012_pu.csv) qmult = (file=../../../../../profiles/res_kvar_4012_pu.csv)
