New Loadshape.SFO_37.9742_-121.9348_55_135 npts= 35040 interval=0.25 mult = (file=../../../../profiles/SFO_37.9742_-121.9348_55_135.csv)

New Loadshape.SFO_37.9373_-121.9348_15_225 npts= 35040 interval=0.25 mult = (file=../../../../profiles/SFO_37.9373_-121.9348_15_225.csv)

New Loadshape.SFO_37.9373_-121.9348_15_270 npts= 35040 interval=0.25 mult = (file=../../../../profiles/SFO_37.9373_-121.9348_15_270.csv)

New Loadshape.SFO_37.9742_-121.9348_45_90 npts= 35040 interval=0.25 mult = (file=../../../../profiles/SFO_37.9742_-121.9348_45_90.csv)

New Loadshape.SFO_37.9742_-121.9348_35_225 npts= 35040 interval=0.25 mult = (file=../../../../profiles/SFO_37.9742_-121.9348_35_225.csv)

New Loadshape.SFO_37.9742_-121.9348_15_180 npts= 35040 interval=0.25 mult = (file=../../../../profiles/SFO_37.9742_-121.9348_15_180.csv)

New Loadshape.SFO_37.9742_-121.9348_15_270 npts= 35040 interval=0.25 mult = (file=../../../../profiles/SFO_37.9742_-121.9348_15_270.csv)

New Loadshape.SFO_37.9742_-121.9348_35_180 npts= 35040 interval=0.25 mult = (file=../../../../profiles/SFO_37.9742_-121.9348_35_180.csv)

New Loadshape.SFO_37.9742_-121.9348_15_90 npts= 35040 interval=0.25 mult = (file=../../../../profiles/SFO_37.9742_-121.9348_15_90.csv)

New Loadshape.SFO_37.9742_-121.9348_25_90 npts= 35040 interval=0.25 mult = (file=../../../../profiles/SFO_37.9742_-121.9348_25_90.csv)

New Loadshape.SFO_37.9742_-121.9348_25_180 npts= 35040 interval=0.25 mult = (file=../../../../profiles/SFO_37.9742_-121.9348_25_180.csv)

New Loadshape.SFO_37.9742_-121.9348_15_225 npts= 35040 interval=0.25 mult = (file=../../../../profiles/SFO_37.9742_-121.9348_15_225.csv)

New Loadshape.SFO_37.9742_-121.9348_35_90 npts= 35040 interval=0.25 mult = (file=../../../../profiles/SFO_37.9742_-121.9348_35_90.csv)

New Loadshape.SFO_37.9742_-121.9348_25_135 npts= 35040 interval=0.25 mult = (file=../../../../profiles/SFO_37.9742_-121.9348_25_135.csv)

New Loadshape.SFO_37.9742_-121.9348_15_135 npts= 35040 interval=0.25 mult = (file=../../../../profiles/SFO_37.9742_-121.9348_15_135.csv)

New Loadshape.SFO_37.9742_-121.9348_45_225 npts= 35040 interval=0.25 mult = (file=../../../../profiles/SFO_37.9742_-121.9348_45_225.csv)

New Loadshape.SFO_37.9742_-121.9348_25_225 npts= 35040 interval=0.25 mult = (file=../../../../profiles/SFO_37.9742_-121.9348_25_225.csv)

New Loadshape.SFO_37.9742_-121.9348_35_135 npts= 35040 interval=0.25 mult = (file=../../../../profiles/SFO_37.9742_-121.9348_35_135.csv)

New Loadshape.SFO_37.9742_-121.9348_25_270 npts= 35040 interval=0.25 mult = (file=../../../../profiles/SFO_37.9742_-121.9348_25_270.csv)

New Loadshape.SFO_37.9742_-121.9348_45_135 npts= 35040 interval=0.25 mult = (file=../../../../profiles/SFO_37.9742_-121.9348_45_135.csv)

New Loadshape.SFO_37.9373_-121.9348_35_90 npts= 35040 interval=0.25 mult = (file=../../../../profiles/SFO_37.9373_-121.9348_35_90.csv)

New Loadshape.SFO_37.9742_-121.9348_45_180 npts= 35040 interval=0.25 mult = (file=../../../../profiles/SFO_37.9742_-121.9348_45_180.csv)

New Loadshape.SFO_37.9742_-121.9348_35_270 npts= 35040 interval=0.25 mult = (file=../../../../profiles/SFO_37.9742_-121.9348_35_270.csv)

New Loadshape.SFO_37.9742_-121.9348_45_270 npts= 35040 interval=0.25 mult = (file=../../../../profiles/SFO_37.9742_-121.9348_45_270.csv)

New Loadshape.SFO_37.9742_-121.9348_55_225 npts= 35040 interval=0.25 mult = (file=../../../../profiles/SFO_37.9742_-121.9348_55_225.csv)

New Loadshape.SFO_38.0111_-121.9348_15_90 npts= 35040 interval=0.25 mult = (file=../../../../profiles/SFO_38.0111_-121.9348_15_90.csv)

New Loadshape.SFO_38.0111_-121.9348_15_270 npts= 35040 interval=0.25 mult = (file=../../../../profiles/SFO_38.0111_-121.9348_15_270.csv)

New Loadshape.SFO_38.0111_-121.9348_25_90 npts= 35040 interval=0.25 mult = (file=../../../../profiles/SFO_38.0111_-121.9348_25_90.csv)

New Loadshape.SFO_38.0111_-121.9348_25_225 npts= 35040 interval=0.25 mult = (file=../../../../profiles/SFO_38.0111_-121.9348_25_225.csv)

New Loadshape.SFO_38.0111_-121.9348_15_180 npts= 35040 interval=0.25 mult = (file=../../../../profiles/SFO_38.0111_-121.9348_15_180.csv)

New Loadshape.SFO_38.0111_-121.9348_35_270 npts= 35040 interval=0.25 mult = (file=../../../../profiles/SFO_38.0111_-121.9348_35_270.csv)

New Loadshape.SFO_38.0111_-121.9348_25_135 npts= 35040 interval=0.25 mult = (file=../../../../profiles/SFO_38.0111_-121.9348_25_135.csv)

New Loadshape.SFO_38.0111_-121.9348_45_180 npts= 35040 interval=0.25 mult = (file=../../../../profiles/SFO_38.0111_-121.9348_45_180.csv)

New Loadshape.SFO_38.0111_-121.9348_25_270 npts= 35040 interval=0.25 mult = (file=../../../../profiles/SFO_38.0111_-121.9348_25_270.csv)

New Loadshape.SFO_38.0111_-121.9348_15_225 npts= 35040 interval=0.25 mult = (file=../../../../profiles/SFO_38.0111_-121.9348_15_225.csv)

New Loadshape.SFO_38.0111_-121.9348_25_180 npts= 35040 interval=0.25 mult = (file=../../../../profiles/SFO_38.0111_-121.9348_25_180.csv)

New Loadshape.SFO_38.0111_-121.9348_15_135 npts= 35040 interval=0.25 mult = (file=../../../../profiles/SFO_38.0111_-121.9348_15_135.csv)

New Loadshape.SFO_38.0111_-121.9348_35_225 npts= 35040 interval=0.25 mult = (file=../../../../profiles/SFO_38.0111_-121.9348_35_225.csv)

New Loadshape.SFO_38.0111_-121.9348_35_135 npts= 35040 interval=0.25 mult = (file=../../../../profiles/SFO_38.0111_-121.9348_35_135.csv)

New Loadshape.SFO_38.0111_-121.9348_35_90 npts= 35040 interval=0.25 mult = (file=../../../../profiles/SFO_38.0111_-121.9348_35_90.csv)

New Loadshape.SFO_37.9742_-121.9348_55_180 npts= 35040 interval=0.25 mult = (file=../../../../profiles/SFO_37.9742_-121.9348_55_180.csv)

New Loadshape.SFO_38.0111_-121.9348_35_180 npts= 35040 interval=0.25 mult = (file=../../../../profiles/SFO_38.0111_-121.9348_35_180.csv)

New Loadshape.SFO_38.0111_-121.9348_45_270 npts= 35040 interval=0.25 mult = (file=../../../../profiles/SFO_38.0111_-121.9348_45_270.csv)

New Loadshape.SFO_37.9373_-121.9348_25_90 npts= 35040 interval=0.25 mult = (file=../../../../profiles/SFO_37.9373_-121.9348_25_90.csv)

New Loadshape.SFO_38.0111_-121.9348_45_135 npts= 35040 interval=0.25 mult = (file=../../../../profiles/SFO_38.0111_-121.9348_45_135.csv)

New Loadshape.SFO_38.0111_-121.9348_45_225 npts= 35040 interval=0.25 mult = (file=../../../../profiles/SFO_38.0111_-121.9348_45_225.csv)

New Loadshape.res_kw_7225_pu npts= 35040 interval=0.25 mult = (file=../../../../profiles/res_kw_7225_pu.csv) qmult = (file=../../../../profiles/res_kvar_7225_pu.csv)

New Loadshape.res_kw_2255_pu npts= 35040 interval=0.25 mult = (file=../../../../profiles/res_kw_2255_pu.csv) qmult = (file=../../../../profiles/res_kvar_2255_pu.csv)

New Loadshape.res_kw_7717_pu npts= 35040 interval=0.25 mult = (file=../../../../profiles/res_kw_7717_pu.csv) qmult = (file=../../../../profiles/res_kvar_7717_pu.csv)

New Loadshape.res_kw_6607_pu npts= 35040 interval=0.25 mult = (file=../../../../profiles/res_kw_6607_pu.csv) qmult = (file=../../../../profiles/res_kvar_6607_pu.csv)

New Loadshape.res_kw_12610_pu npts= 35040 interval=0.25 mult = (file=../../../../profiles/res_kw_12610_pu.csv) qmult = (file=../../../../profiles/res_kvar_12610_pu.csv)

New Loadshape.res_kw_3954_pu npts= 35040 interval=0.25 mult = (file=../../../../profiles/res_kw_3954_pu.csv) qmult = (file=../../../../profiles/res_kvar_3954_pu.csv)

New Loadshape.res_kw_6975_pu npts= 35040 interval=0.25 mult = (file=../../../../profiles/res_kw_6975_pu.csv) qmult = (file=../../../../profiles/res_kvar_6975_pu.csv)

New Loadshape.res_kw_4402_pu npts= 35040 interval=0.25 mult = (file=../../../../profiles/res_kw_4402_pu.csv) qmult = (file=../../../../profiles/res_kvar_4402_pu.csv)

New Loadshape.res_kw_9945_pu npts= 35040 interval=0.25 mult = (file=../../../../profiles/res_kw_9945_pu.csv) qmult = (file=../../../../profiles/res_kvar_9945_pu.csv)

New Loadshape.res_kw_5006_pu npts= 35040 interval=0.25 mult = (file=../../../../profiles/res_kw_5006_pu.csv) qmult = (file=../../../../profiles/res_kvar_5006_pu.csv)

New Loadshape.res_kw_14549_pu npts= 35040 interval=0.25 mult = (file=../../../../profiles/res_kw_14549_pu.csv) qmult = (file=../../../../profiles/res_kvar_14549_pu.csv)

New Loadshape.res_kw_5656_pu npts= 35040 interval=0.25 mult = (file=../../../../profiles/res_kw_5656_pu.csv) qmult = (file=../../../../profiles/res_kvar_5656_pu.csv)

New Loadshape.res_kw_4108_pu npts= 35040 interval=0.25 mult = (file=../../../../profiles/res_kw_4108_pu.csv) qmult = (file=../../../../profiles/res_kvar_4108_pu.csv)

New Loadshape.res_kw_3369_pu npts= 35040 interval=0.25 mult = (file=../../../../profiles/res_kw_3369_pu.csv) qmult = (file=../../../../profiles/res_kvar_3369_pu.csv)

New Loadshape.res_kw_822_pu npts= 35040 interval=0.25 mult = (file=../../../../profiles/res_kw_822_pu.csv) qmult = (file=../../../../profiles/res_kvar_822_pu.csv)

New Loadshape.res_kw_7851_pu npts= 35040 interval=0.25 mult = (file=../../../../profiles/res_kw_7851_pu.csv) qmult = (file=../../../../profiles/res_kvar_7851_pu.csv)

New Loadshape.res_kw_13671_pu npts= 35040 interval=0.25 mult = (file=../../../../profiles/res_kw_13671_pu.csv) qmult = (file=../../../../profiles/res_kvar_13671_pu.csv)

New Loadshape.res_kw_12803_pu npts= 35040 interval=0.25 mult = (file=../../../../profiles/res_kw_12803_pu.csv) qmult = (file=../../../../profiles/res_kvar_12803_pu.csv)

New Loadshape.res_kw_6087_pu npts= 35040 interval=0.25 mult = (file=../../../../profiles/res_kw_6087_pu.csv) qmult = (file=../../../../profiles/res_kvar_6087_pu.csv)

New Loadshape.res_kw_2494_pu npts= 35040 interval=0.25 mult = (file=../../../../profiles/res_kw_2494_pu.csv) qmult = (file=../../../../profiles/res_kvar_2494_pu.csv)

New Loadshape.res_kw_4012_pu npts= 35040 interval=0.25 mult = (file=../../../../profiles/res_kw_4012_pu.csv) qmult = (file=../../../../profiles/res_kvar_4012_pu.csv)

New Loadshape.res_kw_13338_pu npts= 35040 interval=0.25 mult = (file=../../../../profiles/res_kw_13338_pu.csv) qmult = (file=../../../../profiles/res_kvar_13338_pu.csv)

New Loadshape.res_kw_7029_pu npts= 35040 interval=0.25 mult = (file=../../../../profiles/res_kw_7029_pu.csv) qmult = (file=../../../../profiles/res_kvar_7029_pu.csv)

New Loadshape.res_kw_8883_pu npts= 35040 interval=0.25 mult = (file=../../../../profiles/res_kw_8883_pu.csv) qmult = (file=../../../../profiles/res_kvar_8883_pu.csv)

New Loadshape.res_kw_48_pu npts= 35040 interval=0.25 mult = (file=../../../../profiles/res_kw_48_pu.csv) qmult = (file=../../../../profiles/res_kvar_48_pu.csv)

New Loadshape.res_kw_7457_pu npts= 35040 interval=0.25 mult = (file=../../../../profiles/res_kw_7457_pu.csv) qmult = (file=../../../../profiles/res_kvar_7457_pu.csv)

New Loadshape.res_kw_7389_pu npts= 35040 interval=0.25 mult = (file=../../../../profiles/res_kw_7389_pu.csv) qmult = (file=../../../../profiles/res_kvar_7389_pu.csv)

New Loadshape.res_kw_13866_pu npts= 35040 interval=0.25 mult = (file=../../../../profiles/res_kw_13866_pu.csv) qmult = (file=../../../../profiles/res_kvar_13866_pu.csv)

New Loadshape.res_kw_12943_pu npts= 35040 interval=0.25 mult = (file=../../../../profiles/res_kw_12943_pu.csv) qmult = (file=../../../../profiles/res_kvar_12943_pu.csv)

New Loadshape.res_kw_1201_pu npts= 35040 interval=0.25 mult = (file=../../../../profiles/res_kw_1201_pu.csv) qmult = (file=../../../../profiles/res_kvar_1201_pu.csv)

New Loadshape.res_kw_6196_pu npts= 35040 interval=0.25 mult = (file=../../../../profiles/res_kw_6196_pu.csv) qmult = (file=../../../../profiles/res_kvar_6196_pu.csv)

New Loadshape.res_kw_13700_pu npts= 35040 interval=0.25 mult = (file=../../../../profiles/res_kw_13700_pu.csv) qmult = (file=../../../../profiles/res_kvar_13700_pu.csv)

New Loadshape.res_kw_960_pu npts= 35040 interval=0.25 mult = (file=../../../../profiles/res_kw_960_pu.csv) qmult = (file=../../../../profiles/res_kvar_960_pu.csv)

New Loadshape.res_kw_7596_pu npts= 35040 interval=0.25 mult = (file=../../../../profiles/res_kw_7596_pu.csv) qmult = (file=../../../../profiles/res_kvar_7596_pu.csv)

New Loadshape.res_kw_2345_pu npts= 35040 interval=0.25 mult = (file=../../../../profiles/res_kw_2345_pu.csv) qmult = (file=../../../../profiles/res_kvar_2345_pu.csv)

New Loadshape.res_kw_5183_pu npts= 35040 interval=0.25 mult = (file=../../../../profiles/res_kw_5183_pu.csv) qmult = (file=../../../../profiles/res_kvar_5183_pu.csv)

New Loadshape.res_kw_3630_pu npts= 35040 interval=0.25 mult = (file=../../../../profiles/res_kw_3630_pu.csv) qmult = (file=../../../../profiles/res_kvar_3630_pu.csv)

New Loadshape.res_kw_2514_pu npts= 35040 interval=0.25 mult = (file=../../../../profiles/res_kw_2514_pu.csv) qmult = (file=../../../../profiles/res_kvar_2514_pu.csv)

New Loadshape.res_kw_4694_pu npts= 35040 interval=0.25 mult = (file=../../../../profiles/res_kw_4694_pu.csv) qmult = (file=../../../../profiles/res_kvar_4694_pu.csv)

New Loadshape.res_kw_6262_pu npts= 35040 interval=0.25 mult = (file=../../../../profiles/res_kw_6262_pu.csv) qmult = (file=../../../../profiles/res_kvar_6262_pu.csv)

New Loadshape.res_kw_4734_pu npts= 35040 interval=0.25 mult = (file=../../../../profiles/res_kw_4734_pu.csv) qmult = (file=../../../../profiles/res_kvar_4734_pu.csv)

New Loadshape.res_kw_15001_pu npts= 35040 interval=0.25 mult = (file=../../../../profiles/res_kw_15001_pu.csv) qmult = (file=../../../../profiles/res_kvar_15001_pu.csv)

New Loadshape.res_kw_5417_pu npts= 35040 interval=0.25 mult = (file=../../../../profiles/res_kw_5417_pu.csv) qmult = (file=../../../../profiles/res_kvar_5417_pu.csv)

New Loadshape.res_kw_14615_pu npts= 35040 interval=0.25 mult = (file=../../../../profiles/res_kw_14615_pu.csv) qmult = (file=../../../../profiles/res_kvar_14615_pu.csv)

New Loadshape.res_kw_1989_pu npts= 35040 interval=0.25 mult = (file=../../../../profiles/res_kw_1989_pu.csv) qmult = (file=../../../../profiles/res_kvar_1989_pu.csv)

New Loadshape.res_kw_5231_pu npts= 35040 interval=0.25 mult = (file=../../../../profiles/res_kw_5231_pu.csv) qmult = (file=../../../../profiles/res_kvar_5231_pu.csv)

New Loadshape.res_kw_10487_pu npts= 35040 interval=0.25 mult = (file=../../../../profiles/res_kw_10487_pu.csv) qmult = (file=../../../../profiles/res_kvar_10487_pu.csv)

New Loadshape.res_kw_4586_pu npts= 35040 interval=0.25 mult = (file=../../../../profiles/res_kw_4586_pu.csv) qmult = (file=../../../../profiles/res_kvar_4586_pu.csv)

New Loadshape.res_kw_3977_pu npts= 35040 interval=0.25 mult = (file=../../../../profiles/res_kw_3977_pu.csv) qmult = (file=../../../../profiles/res_kvar_3977_pu.csv)

New Loadshape.res_kw_13258_pu npts= 35040 interval=0.25 mult = (file=../../../../profiles/res_kw_13258_pu.csv) qmult = (file=../../../../profiles/res_kvar_13258_pu.csv)

New Loadshape.res_kw_7631_pu npts= 35040 interval=0.25 mult = (file=../../../../profiles/res_kw_7631_pu.csv) qmult = (file=../../../../profiles/res_kvar_7631_pu.csv)

New Loadshape.res_kw_8121_pu npts= 35040 interval=0.25 mult = (file=../../../../profiles/res_kw_8121_pu.csv) qmult = (file=../../../../profiles/res_kvar_8121_pu.csv)

New Loadshape.res_kw_2365_pu npts= 35040 interval=0.25 mult = (file=../../../../profiles/res_kw_2365_pu.csv) qmult = (file=../../../../profiles/res_kvar_2365_pu.csv)

New Loadshape.res_kw_1389_pu npts= 35040 interval=0.25 mult = (file=../../../../profiles/res_kw_1389_pu.csv) qmult = (file=../../../../profiles/res_kvar_1389_pu.csv)

New Loadshape.res_kw_1949_pu npts= 35040 interval=0.25 mult = (file=../../../../profiles/res_kw_1949_pu.csv) qmult = (file=../../../../profiles/res_kvar_1949_pu.csv)

New Loadshape.res_kw_6240_pu npts= 35040 interval=0.25 mult = (file=../../../../profiles/res_kw_6240_pu.csv) qmult = (file=../../../../profiles/res_kvar_6240_pu.csv)

New Loadshape.res_kw_9131_pu npts= 35040 interval=0.25 mult = (file=../../../../profiles/res_kw_9131_pu.csv) qmult = (file=../../../../profiles/res_kvar_9131_pu.csv)

New Loadshape.res_kw_6166_pu npts= 35040 interval=0.25 mult = (file=../../../../profiles/res_kw_6166_pu.csv) qmult = (file=../../../../profiles/res_kvar_6166_pu.csv)

New Loadshape.res_kw_11106_pu npts= 35040 interval=0.25 mult = (file=../../../../profiles/res_kw_11106_pu.csv) qmult = (file=../../../../profiles/res_kvar_11106_pu.csv)

New Loadshape.res_kw_7472_pu npts= 35040 interval=0.25 mult = (file=../../../../profiles/res_kw_7472_pu.csv) qmult = (file=../../../../profiles/res_kvar_7472_pu.csv)

New Loadshape.res_kw_13363_pu npts= 35040 interval=0.25 mult = (file=../../../../profiles/res_kw_13363_pu.csv) qmult = (file=../../../../profiles/res_kvar_13363_pu.csv)

New Loadshape.res_kw_14411_pu npts= 35040 interval=0.25 mult = (file=../../../../profiles/res_kw_14411_pu.csv) qmult = (file=../../../../profiles/res_kvar_14411_pu.csv)

New Loadshape.res_kw_8466_pu npts= 35040 interval=0.25 mult = (file=../../../../profiles/res_kw_8466_pu.csv) qmult = (file=../../../../profiles/res_kvar_8466_pu.csv)

New Loadshape.res_kw_200_pu npts= 35040 interval=0.25 mult = (file=../../../../profiles/res_kw_200_pu.csv) qmult = (file=../../../../profiles/res_kvar_200_pu.csv)

New Loadshape.res_kw_11983_pu npts= 35040 interval=0.25 mult = (file=../../../../profiles/res_kw_11983_pu.csv) qmult = (file=../../../../profiles/res_kvar_11983_pu.csv)

New Loadshape.res_kw_6308_pu npts= 35040 interval=0.25 mult = (file=../../../../profiles/res_kw_6308_pu.csv) qmult = (file=../../../../profiles/res_kvar_6308_pu.csv)

New Loadshape.res_kw_10838_pu npts= 35040 interval=0.25 mult = (file=../../../../profiles/res_kw_10838_pu.csv) qmult = (file=../../../../profiles/res_kvar_10838_pu.csv)

New Loadshape.res_kw_11687_pu npts= 35040 interval=0.25 mult = (file=../../../../profiles/res_kw_11687_pu.csv) qmult = (file=../../../../profiles/res_kvar_11687_pu.csv)

New Loadshape.res_kw_3249_pu npts= 35040 interval=0.25 mult = (file=../../../../profiles/res_kw_3249_pu.csv) qmult = (file=../../../../profiles/res_kvar_3249_pu.csv)

New Loadshape.res_kw_5640_pu npts= 35040 interval=0.25 mult = (file=../../../../profiles/res_kw_5640_pu.csv) qmult = (file=../../../../profiles/res_kvar_5640_pu.csv)

New Loadshape.res_kw_5369_pu npts= 35040 interval=0.25 mult = (file=../../../../profiles/res_kw_5369_pu.csv) qmult = (file=../../../../profiles/res_kvar_5369_pu.csv)

New Loadshape.res_kw_5722_pu npts= 35040 interval=0.25 mult = (file=../../../../profiles/res_kw_5722_pu.csv) qmult = (file=../../../../profiles/res_kvar_5722_pu.csv)

New Loadshape.res_kw_10915_pu npts= 35040 interval=0.25 mult = (file=../../../../profiles/res_kw_10915_pu.csv) qmult = (file=../../../../profiles/res_kvar_10915_pu.csv)

New Loadshape.res_kw_11953_pu npts= 35040 interval=0.25 mult = (file=../../../../profiles/res_kw_11953_pu.csv) qmult = (file=../../../../profiles/res_kvar_11953_pu.csv)

New Loadshape.res_kw_14529_pu npts= 35040 interval=0.25 mult = (file=../../../../profiles/res_kw_14529_pu.csv) qmult = (file=../../../../profiles/res_kvar_14529_pu.csv)

New Loadshape.res_kw_7476_pu npts= 35040 interval=0.25 mult = (file=../../../../profiles/res_kw_7476_pu.csv) qmult = (file=../../../../profiles/res_kvar_7476_pu.csv)

New Loadshape.res_kw_2868_pu npts= 35040 interval=0.25 mult = (file=../../../../profiles/res_kw_2868_pu.csv) qmult = (file=../../../../profiles/res_kvar_2868_pu.csv)

New Loadshape.res_kw_1509_pu npts= 35040 interval=0.25 mult = (file=../../../../profiles/res_kw_1509_pu.csv) qmult = (file=../../../../profiles/res_kvar_1509_pu.csv)

New Loadshape.res_kw_14077_pu npts= 35040 interval=0.25 mult = (file=../../../../profiles/res_kw_14077_pu.csv) qmult = (file=../../../../profiles/res_kvar_14077_pu.csv)

New Loadshape.res_kw_557_pu npts= 35040 interval=0.25 mult = (file=../../../../profiles/res_kw_557_pu.csv) qmult = (file=../../../../profiles/res_kvar_557_pu.csv)

New Loadshape.res_kw_6317_pu npts= 35040 interval=0.25 mult = (file=../../../../profiles/res_kw_6317_pu.csv) qmult = (file=../../../../profiles/res_kvar_6317_pu.csv)

New Loadshape.res_kw_13931_pu npts= 35040 interval=0.25 mult = (file=../../../../profiles/res_kw_13931_pu.csv) qmult = (file=../../../../profiles/res_kvar_13931_pu.csv)

New Loadshape.res_kw_7616_pu npts= 35040 interval=0.25 mult = (file=../../../../profiles/res_kw_7616_pu.csv) qmult = (file=../../../../profiles/res_kvar_7616_pu.csv)

New Loadshape.res_kw_10595_pu npts= 35040 interval=0.25 mult = (file=../../../../profiles/res_kw_10595_pu.csv) qmult = (file=../../../../profiles/res_kvar_10595_pu.csv)

New Loadshape.res_kw_14862_pu npts= 35040 interval=0.25 mult = (file=../../../../profiles/res_kw_14862_pu.csv) qmult = (file=../../../../profiles/res_kvar_14862_pu.csv)

New Loadshape.res_kw_9454_pu npts= 35040 interval=0.25 mult = (file=../../../../profiles/res_kw_9454_pu.csv) qmult = (file=../../../../profiles/res_kvar_9454_pu.csv)

New Loadshape.res_kw_3219_pu npts= 35040 interval=0.25 mult = (file=../../../../profiles/res_kw_3219_pu.csv) qmult = (file=../../../../profiles/res_kvar_3219_pu.csv)

New Loadshape.res_kw_14135_pu npts= 35040 interval=0.25 mult = (file=../../../../profiles/res_kw_14135_pu.csv) qmult = (file=../../../../profiles/res_kvar_14135_pu.csv)

New Loadshape.res_kw_11798_pu npts= 35040 interval=0.25 mult = (file=../../../../profiles/res_kw_11798_pu.csv) qmult = (file=../../../../profiles/res_kvar_11798_pu.csv)

New Loadshape.res_kw_7591_pu npts= 35040 interval=0.25 mult = (file=../../../../profiles/res_kw_7591_pu.csv) qmult = (file=../../../../profiles/res_kvar_7591_pu.csv)

New Loadshape.res_kw_13175_pu npts= 35040 interval=0.25 mult = (file=../../../../profiles/res_kw_13175_pu.csv) qmult = (file=../../../../profiles/res_kvar_13175_pu.csv)

New Loadshape.res_kw_8267_pu npts= 35040 interval=0.25 mult = (file=../../../../profiles/res_kw_8267_pu.csv) qmult = (file=../../../../profiles/res_kvar_8267_pu.csv)

New Loadshape.res_kw_14085_pu npts= 35040 interval=0.25 mult = (file=../../../../profiles/res_kw_14085_pu.csv) qmult = (file=../../../../profiles/res_kvar_14085_pu.csv)

New Loadshape.res_kw_11346_pu npts= 35040 interval=0.25 mult = (file=../../../../profiles/res_kw_11346_pu.csv) qmult = (file=../../../../profiles/res_kvar_11346_pu.csv)

New Loadshape.res_kw_1616_pu npts= 35040 interval=0.25 mult = (file=../../../../profiles/res_kw_1616_pu.csv) qmult = (file=../../../../profiles/res_kvar_1616_pu.csv)

New Loadshape.res_kw_9331_pu npts= 35040 interval=0.25 mult = (file=../../../../profiles/res_kw_9331_pu.csv) qmult = (file=../../../../profiles/res_kvar_9331_pu.csv)

New Loadshape.res_kw_4496_pu npts= 35040 interval=0.25 mult = (file=../../../../profiles/res_kw_4496_pu.csv) qmult = (file=../../../../profiles/res_kvar_4496_pu.csv)

New Loadshape.res_kw_5366_pu npts= 35040 interval=0.25 mult = (file=../../../../profiles/res_kw_5366_pu.csv) qmult = (file=../../../../profiles/res_kvar_5366_pu.csv)

New Loadshape.res_kw_5610_pu npts= 35040 interval=0.25 mult = (file=../../../../profiles/res_kw_5610_pu.csv) qmult = (file=../../../../profiles/res_kvar_5610_pu.csv)

New Loadshape.res_kw_1022_pu npts= 35040 interval=0.25 mult = (file=../../../../profiles/res_kw_1022_pu.csv) qmult = (file=../../../../profiles/res_kvar_1022_pu.csv)

New Loadshape.res_kw_6602_pu npts= 35040 interval=0.25 mult = (file=../../../../profiles/res_kw_6602_pu.csv) qmult = (file=../../../../profiles/res_kvar_6602_pu.csv)

New Loadshape.res_kw_6872_pu npts= 35040 interval=0.25 mult = (file=../../../../profiles/res_kw_6872_pu.csv) qmult = (file=../../../../profiles/res_kvar_6872_pu.csv)

New Loadshape.res_kw_14095_pu npts= 35040 interval=0.25 mult = (file=../../../../profiles/res_kw_14095_pu.csv) qmult = (file=../../../../profiles/res_kvar_14095_pu.csv)

New Loadshape.res_kw_9896_pu npts= 35040 interval=0.25 mult = (file=../../../../profiles/res_kw_9896_pu.csv) qmult = (file=../../../../profiles/res_kvar_9896_pu.csv)

New Loadshape.res_kw_13091_pu npts= 35040 interval=0.25 mult = (file=../../../../profiles/res_kw_13091_pu.csv) qmult = (file=../../../../profiles/res_kvar_13091_pu.csv)

New Loadshape.res_kw_1059_pu npts= 35040 interval=0.25 mult = (file=../../../../profiles/res_kw_1059_pu.csv) qmult = (file=../../../../profiles/res_kvar_1059_pu.csv)

New Loadshape.res_kw_1517_pu npts= 35040 interval=0.25 mult = (file=../../../../profiles/res_kw_1517_pu.csv) qmult = (file=../../../../profiles/res_kvar_1517_pu.csv)

New Loadshape.res_kw_13140_pu npts= 35040 interval=0.25 mult = (file=../../../../profiles/res_kw_13140_pu.csv) qmult = (file=../../../../profiles/res_kvar_13140_pu.csv)

New Loadshape.res_kw_13840_pu npts= 35040 interval=0.25 mult = (file=../../../../profiles/res_kw_13840_pu.csv) qmult = (file=../../../../profiles/res_kvar_13840_pu.csv)

New Loadshape.res_kw_8478_pu npts= 35040 interval=0.25 mult = (file=../../../../profiles/res_kw_8478_pu.csv) qmult = (file=../../../../profiles/res_kvar_8478_pu.csv)

New Loadshape.res_kw_9881_pu npts= 35040 interval=0.25 mult = (file=../../../../profiles/res_kw_9881_pu.csv) qmult = (file=../../../../profiles/res_kvar_9881_pu.csv)

New Loadshape.res_kw_14345_pu npts= 35040 interval=0.25 mult = (file=../../../../profiles/res_kw_14345_pu.csv) qmult = (file=../../../../profiles/res_kvar_14345_pu.csv)

New Loadshape.res_kw_13015_pu npts= 35040 interval=0.25 mult = (file=../../../../profiles/res_kw_13015_pu.csv) qmult = (file=../../../../profiles/res_kvar_13015_pu.csv)

New Loadshape.res_kw_2400_pu npts= 35040 interval=0.25 mult = (file=../../../../profiles/res_kw_2400_pu.csv) qmult = (file=../../../../profiles/res_kvar_2400_pu.csv)

New Loadshape.res_kw_11802_pu npts= 35040 interval=0.25 mult = (file=../../../../profiles/res_kw_11802_pu.csv) qmult = (file=../../../../profiles/res_kvar_11802_pu.csv)

New Loadshape.res_kw_13554_pu npts= 35040 interval=0.25 mult = (file=../../../../profiles/res_kw_13554_pu.csv) qmult = (file=../../../../profiles/res_kvar_13554_pu.csv)

New Loadshape.res_kw_8509_pu npts= 35040 interval=0.25 mult = (file=../../../../profiles/res_kw_8509_pu.csv) qmult = (file=../../../../profiles/res_kvar_8509_pu.csv)

New Loadshape.res_kw_5091_pu npts= 35040 interval=0.25 mult = (file=../../../../profiles/res_kw_5091_pu.csv) qmult = (file=../../../../profiles/res_kvar_5091_pu.csv)

New Loadshape.res_kw_10452_pu npts= 35040 interval=0.25 mult = (file=../../../../profiles/res_kw_10452_pu.csv) qmult = (file=../../../../profiles/res_kvar_10452_pu.csv)

New Loadshape.res_kw_3376_pu npts= 35040 interval=0.25 mult = (file=../../../../profiles/res_kw_3376_pu.csv) qmult = (file=../../../../profiles/res_kvar_3376_pu.csv)

New Loadshape.res_kw_1140_pu npts= 35040 interval=0.25 mult = (file=../../../../profiles/res_kw_1140_pu.csv) qmult = (file=../../../../profiles/res_kvar_1140_pu.csv)

New Loadshape.res_kw_12525_pu npts= 35040 interval=0.25 mult = (file=../../../../profiles/res_kw_12525_pu.csv) qmult = (file=../../../../profiles/res_kvar_12525_pu.csv)

New Loadshape.res_kw_4976_pu npts= 35040 interval=0.25 mult = (file=../../../../profiles/res_kw_4976_pu.csv) qmult = (file=../../../../profiles/res_kvar_4976_pu.csv)

New Loadshape.res_kw_14711_pu npts= 35040 interval=0.25 mult = (file=../../../../profiles/res_kw_14711_pu.csv) qmult = (file=../../../../profiles/res_kvar_14711_pu.csv)

New Loadshape.res_kw_2763_pu npts= 35040 interval=0.25 mult = (file=../../../../profiles/res_kw_2763_pu.csv) qmult = (file=../../../../profiles/res_kvar_2763_pu.csv)

New Loadshape.res_kw_5155_pu npts= 35040 interval=0.25 mult = (file=../../../../profiles/res_kw_5155_pu.csv) qmult = (file=../../../../profiles/res_kvar_5155_pu.csv)

New Loadshape.res_kw_845_pu npts= 35040 interval=0.25 mult = (file=../../../../profiles/res_kw_845_pu.csv) qmult = (file=../../../../profiles/res_kvar_845_pu.csv)

New Loadshape.res_kw_6230_pu npts= 35040 interval=0.25 mult = (file=../../../../profiles/res_kw_6230_pu.csv) qmult = (file=../../../../profiles/res_kvar_6230_pu.csv)

New Loadshape.res_kw_14470_pu npts= 35040 interval=0.25 mult = (file=../../../../profiles/res_kw_14470_pu.csv) qmult = (file=../../../../profiles/res_kvar_14470_pu.csv)

New Loadshape.res_kw_4011_pu npts= 35040 interval=0.25 mult = (file=../../../../profiles/res_kw_4011_pu.csv) qmult = (file=../../../../profiles/res_kvar_4011_pu.csv)

New Loadshape.res_kw_13589_pu npts= 35040 interval=0.25 mult = (file=../../../../profiles/res_kw_13589_pu.csv) qmult = (file=../../../../profiles/res_kvar_13589_pu.csv)

New Loadshape.res_kw_6255_pu npts= 35040 interval=0.25 mult = (file=../../../../profiles/res_kw_6255_pu.csv) qmult = (file=../../../../profiles/res_kvar_6255_pu.csv)

New Loadshape.res_kw_11842_pu npts= 35040 interval=0.25 mult = (file=../../../../profiles/res_kw_11842_pu.csv) qmult = (file=../../../../profiles/res_kvar_11842_pu.csv)

New Loadshape.res_kw_1335_pu npts= 35040 interval=0.25 mult = (file=../../../../profiles/res_kw_1335_pu.csv) qmult = (file=../../../../profiles/res_kvar_1335_pu.csv)

New Loadshape.res_kw_12125_pu npts= 35040 interval=0.25 mult = (file=../../../../profiles/res_kw_12125_pu.csv) qmult = (file=../../../../profiles/res_kvar_12125_pu.csv)

New Loadshape.res_kw_14289_pu npts= 35040 interval=0.25 mult = (file=../../../../profiles/res_kw_14289_pu.csv) qmult = (file=../../../../profiles/res_kvar_14289_pu.csv)

New Loadshape.res_kw_3580_pu npts= 35040 interval=0.25 mult = (file=../../../../profiles/res_kw_3580_pu.csv) qmult = (file=../../../../profiles/res_kvar_3580_pu.csv)

New Loadshape.res_kw_12651_pu npts= 35040 interval=0.25 mult = (file=../../../../profiles/res_kw_12651_pu.csv) qmult = (file=../../../../profiles/res_kvar_12651_pu.csv)

New Loadshape.res_kw_11008_pu npts= 35040 interval=0.25 mult = (file=../../../../profiles/res_kw_11008_pu.csv) qmult = (file=../../../../profiles/res_kvar_11008_pu.csv)

New Loadshape.res_kw_11220_pu npts= 35040 interval=0.25 mult = (file=../../../../profiles/res_kw_11220_pu.csv) qmult = (file=../../../../profiles/res_kvar_11220_pu.csv)
