New Line.l(r:p17udt485lv-p17ulv1555) Units=km Length=0.0130352 bus1=p17udt485lv.1.2 bus2=p17ulv1555.1.2 switch=n enabled=y phases=2 Linecode=1P_OH_AL_2/0_Rucina_2

New Line.l(r:p17udt485lv-p17ulv1641) Units=km Length=0.0116025 bus1=p17udt485lv.1.2 bus2=p17ulv1641.1.2 switch=n enabled=y phases=2 Linecode=1P_OH_AL_2/0_Rucina_2

New Line.l(r:p17udt485lv-p17ulv1654) Units=km Length=0.0140771 bus1=p17udt485lv.1.2 bus2=p17ulv1654.1.2 switch=n enabled=y phases=2 Linecode=1P_OH_AL_2/0_Rucina_2

New Line.l(r:p17udm1842-p17ulv4580) Units=km Length=0.0152582 bus1=p17udm1842.1.2 bus2=p17ulv4580.1.2 switch=n enabled=y phases=2 Linecode=1P_OH_AL_2/0_Rucina_2

New Line.l(r:p17udm1842-p17udt485lv) Units=km Length=0.0316218 bus1=p17udt485lv.1.2 bus2=p17udm1842.1.2 switch=n enabled=y phases=2 Linecode=1P_OH_AL_4/0_Zuzara_2

New Line.l(r:p17udt488lv-p17ulv1636) Units=km Length=0.00880619 bus1=p17udt488lv.1.2 bus2=p17ulv1636.1.2 switch=n enabled=y phases=2 Linecode=1P_OH_AL_2/0_Rucina_2

New Line.l(r:p17udt488lv-p17ulv4416) Units=km Length=0.0183361 bus1=p17udt488lv.1.2 bus2=p17ulv4416.1.2 switch=n enabled=y phases=2 Linecode=1P_OH_AL_2/0_Rucina_2

New Line.l(r:p17udm1851-p17ulv1558) Units=km Length=0.00949409 bus1=p17udm1851.1.2 bus2=p17ulv1558.1.2 switch=n enabled=y phases=2 Linecode=1P_OH_AL_2/0_Rucina_2

New Line.l(r:p17udm1851-p17ulv4421) Units=km Length=0.0190123 bus1=p17udm1851.1.2 bus2=p17ulv4421.1.2 switch=n enabled=y phases=2 Linecode=1P_OH_AL_2/0_Rucina_2

New Line.l(r:p17udm1851-p17udt488lv) Units=km Length=0.0188234 bus1=p17udt488lv.1.2 bus2=p17udm1851.1.2 switch=n enabled=y phases=2 Linecode=1P_OH_AL_2/0_Rucina_2

New Line.l(r:p17udm1853-p17ulv3148) Units=km Length=0.0113179 bus1=p17udm1853.1.2 bus2=p17ulv3148.1.2 switch=n enabled=y phases=2 Linecode=1P_OH_AL_2/0_Rucina_2

New Line.l(r:p17udm1853-p17ulv4500) Units=km Length=0.0170082 bus1=p17udm1853.1.2 bus2=p17ulv4500.1.2 switch=n enabled=y phases=2 Linecode=1P_OH_AL_2/0_Rucina_2

New Line.l(r:p17udm1854-p17ulv3235) Units=km Length=0.0107163 bus1=p17udm1854.1.2 bus2=p17ulv3235.1.2 switch=n enabled=y phases=2 Linecode=1P_OH_AL_2/0_Rucina_2

New Line.l(r:p17udm1854-p17ulv4437) Units=km Length=0.0165496 bus1=p17udm1854.1.2 bus2=p17ulv4437.1.2 switch=n enabled=y phases=2 Linecode=1P_OH_AL_2/0_Rucina_2

New Line.l(r:p17udm1853-p17udm1854) Units=km Length=0.0136066 bus1=p17udm1853.1.2 bus2=p17udm1854.1.2 switch=n enabled=y phases=2 Linecode=1P_OH_AL_2/0_Rucina_2

New Line.l(r:p17udm1853-p17udt488lv) Units=km Length=0.0197362 bus1=p17udt488lv.1.2 bus2=p17udm1853.1.2 switch=n enabled=y phases=2 Linecode=1P_OH_AL_2/0_Rucina_2

New Line.l(r:p17udt513lv-p17ulv1643) Units=km Length=0.012206 bus1=p17udt513lv.1.2 bus2=p17ulv1643.1.2 switch=n enabled=y phases=2 Linecode=1P_OH_AL_2/0_Rucina_2

New Line.l(r:p17udt513lv-p17ulv4497) Units=km Length=0.014607 bus1=p17udt513lv.1.2 bus2=p17ulv4497.1.2 switch=n enabled=y phases=2 Linecode=1P_OH_AL_2/0_Rucina_2

New Line.l(r:p17udm1962-p17ulv1611) Units=km Length=0.0156706 bus1=p17udm1962.1.2 bus2=p17ulv1611.1.2 switch=n enabled=y phases=2 Linecode=1P_OH_AL_2/0_Rucina_2

New Line.l(r:p17udm1962-p17ulv4468) Units=km Length=0.0120852 bus1=p17udm1962.1.2 bus2=p17ulv4468.1.2 switch=n enabled=y phases=2 Linecode=1P_OH_AL_2/0_Rucina_2

New Line.l(r:p17udm1962-p17ulv4501) Units=km Length=0.0127237 bus1=p17udm1962.1.2 bus2=p17ulv4501.1.2 switch=n enabled=y phases=2 Linecode=1P_OH_AL_2/0_Rucina_2

New Line.l(r:p17udm1962-p17udt513lv) Units=km Length=0.0198515 bus1=p17udt513lv.1.2 bus2=p17udm1962.1.2 switch=n enabled=y phases=2 Linecode=1P_OH_AL_2/0_Rucina_2

New Line.l(r:p17udm1965-p17ulv4486) Units=km Length=0.0130757 bus1=p17udm1965.1.2 bus2=p17ulv4486.1.2 switch=n enabled=y phases=2 Linecode=1P_OH_AL_2/0_Rucina_2

New Line.l(r:p17udm1965-p17udt513lv) Units=km Length=0.023767600000000003 bus1=p17udt513lv.1.2 bus2=p17udm1965.1.2 switch=n enabled=y phases=2 Linecode=1P_OH_AL_2/0_Rucina_2

New Line.l(r:p17udt522lv-p17ulv1673) Units=km Length=0.0111022 bus1=p17udt522lv.1.2 bus2=p17ulv1673.1.2 switch=n enabled=y phases=2 Linecode=1P_OH_AL_2/0_Rucina_2

New Line.l(r:p17udt522lv-p17ulv4467) Units=km Length=0.0174314 bus1=p17udt522lv.1.2 bus2=p17ulv4467.1.2 switch=n enabled=y phases=2 Linecode=1P_OH_AL_2/0_Rucina_2

New Line.l(r:p17udm1994-p17ulv4406) Units=km Length=0.0190706 bus1=p17udm1994.1.2 bus2=p17ulv4406.1.2 switch=n enabled=y phases=2 Linecode=1P_OH_AL_2/0_Rucina_2

New Line.l(r:p17udm1994-p17ulv4544) Units=km Length=0.015614300000000001 bus1=p17udm1994.1.2 bus2=p17ulv4544.1.2 switch=n enabled=y phases=2 Linecode=1P_OH_AL_2/0_Rucina_2

New Line.l(r:p17udm1994-p17udt522lv) Units=km Length=0.0161714 bus1=p17udt522lv.1.2 bus2=p17udm1994.1.2 switch=n enabled=y phases=2 Linecode=1P_OH_AL_2/0_Rucina_2

New Line.l(r:p17udm1996-p17ulv4526) Units=km Length=0.0154949 bus1=p17udm1996.1.2 bus2=p17ulv4526.1.2 switch=n enabled=y phases=2 Linecode=1P_OH_AL_2/0_Rucina_2

New Line.l(r:p17udm1996-p17udt522lv) Units=km Length=0.014070400000000002 bus1=p17udt522lv.1.2 bus2=p17udm1996.1.2 switch=n enabled=y phases=2 Linecode=1P_OH_AL_2/0_Rucina_2

New Line.l(r:p17udt876lv-p17ulv3064) Units=km Length=0.0153021 bus1=p17udt876lv.1.2 bus2=p17ulv3064.1.2 switch=n enabled=y phases=2 Linecode=1P_OH_AL_2/0_Rucina_2

New Line.l(r:p17udt876lv-p17ulv3268) Units=km Length=0.0109276 bus1=p17udt876lv.1.2 bus2=p17ulv3268.1.2 switch=n enabled=y phases=2 Linecode=1P_OH_AL_2/0_Rucina_2

New Line.l(r:p17udt876lv-p17ulv4451) Units=km Length=0.0168122 bus1=p17udt876lv.1.2 bus2=p17ulv4451.1.2 switch=n enabled=y phases=2 Linecode=1P_OH_AL_2/0_Rucina_2

New Line.l(r:p17udm3643-p17ulv3223) Units=km Length=0.0121576 bus1=p17udm3643.1.2 bus2=p17ulv3223.1.2 switch=n enabled=y phases=2 Linecode=1P_OH_AL_2/0_Rucina_2

New Line.l(r:p17udm3643-p17ulv4518) Units=km Length=0.015314000000000001 bus1=p17udm3643.1.2 bus2=p17ulv4518.1.2 switch=n enabled=y phases=2 Linecode=1P_OH_AL_2/0_Rucina_2

New Line.l(r:p17udm3647-p17ulv4438) Units=km Length=0.014300500000000002 bus1=p17udm3647.1.2 bus2=p17ulv4438.1.2 switch=n enabled=y phases=2 Linecode=1P_OH_AL_2/0_Rucina_2

New Line.l(r:p17udm3647-p17ulv4612) Units=km Length=0.0154975 bus1=p17udm3647.1.2 bus2=p17ulv4612.1.2 switch=n enabled=y phases=2 Linecode=1P_OH_AL_2/0_Rucina_2

New Line.l(r:p17udm3643-p17udm3647) Units=km Length=0.0128972 bus1=p17udm3643.1.2 bus2=p17udm3647.1.2 switch=n enabled=y phases=2 Linecode=1P_OH_AL_2/0_Rucina_2

New Line.l(r:p17udm3643-p17udt876lv) Units=km Length=0.0129055 bus1=p17udt876lv.1.2 bus2=p17udm3643.1.2 switch=n enabled=y phases=2 Linecode=1P_OH_AL_2/0_Rucina_2

New Line.l(r:p17udm3645-p17ulv3367) Units=km Length=0.0133092 bus1=p17udm3645.1.2 bus2=p17ulv3367.1.2 switch=n enabled=y phases=2 Linecode=1P_OH_AL_2/0_Rucina_2

New Line.l(r:p17udm3645-p17ulv4424) Units=km Length=0.0162226 bus1=p17udm3645.1.2 bus2=p17ulv4424.1.2 switch=n enabled=y phases=2 Linecode=1P_OH_AL_2/0_Rucina_2

New Line.l(r:p17udm3645-p17udt876lv) Units=km Length=0.0132185 bus1=p17udt876lv.1.2 bus2=p17udm3645.1.2 switch=n enabled=y phases=2 Linecode=1P_OH_AL_2/0_Rucina_2

New Line.l(r:p17udm3816-p17ulv3259) Units=km Length=0.0117297 bus1=p17udm3816.1.2 bus2=p17ulv3259.1.2 switch=n enabled=y phases=2 Linecode=1P_OH_AL_2/0_Rucina_2

New Line.l(r:p17udm3816-p17ulv4432) Units=km Length=0.0172506 bus1=p17udm3816.1.2 bus2=p17ulv4432.1.2 switch=n enabled=y phases=2 Linecode=1P_OH_AL_2/0_Rucina_2

New Line.l(r:p17udm3816-p17udt919lv) Units=km Length=0.0264357 bus1=p17udt919lv.1.2 bus2=p17udm3816.1.2 switch=n enabled=y phases=2 Linecode=1P_OH_AL_2/0_Rucina_2

New Line.l(r:p17udm3818-p17ulv4442) Units=km Length=0.018119400000000004 bus1=p17udm3818.1.2 bus2=p17ulv4442.1.2 switch=n enabled=y phases=2 Linecode=1P_OH_AL_2/0_Rucina_2

New Line.l(r:p17udm3818-p17udt919lv) Units=km Length=0.04381440000000001 bus1=p17udt919lv.1.2 bus2=p17udm3818.1.2 switch=n enabled=y phases=2 Linecode=1P_OH_AL_4/0_Zuzara_2

New Line.l(r:p17udt921lv-p17ulv3291) Units=km Length=0.014114400000000001 bus1=p17udt921lv.1.2 bus2=p17ulv3291.1.2 switch=n enabled=y phases=2 Linecode=1P_OH_AL_2/0_Rucina_2

New Line.l(r:p17udm3822-p17ulv4495) Units=km Length=0.013726100000000001 bus1=p17udm3822.1.2 bus2=p17ulv4495.1.2 switch=n enabled=y phases=2 Linecode=1P_OH_AL_2/0_Rucina_2

New Line.l(r:p17udm3822-p17ulv5188) Units=km Length=0.0146512 bus1=p17udm3822.1.2 bus2=p17ulv5188.1.2 switch=n enabled=y phases=2 Linecode=1P_OH_AL_2/0_Rucina_2

New Line.l(r:p17udm3822-p17udt921lv) Units=km Length=0.0189647 bus1=p17udt921lv.1.2 bus2=p17udm3822.1.2 switch=n enabled=y phases=2 Linecode=1P_OH_AL_2/0_Rucina_2

New Line.l(r:p17udm3824-p17ulv9332) Units=km Length=0.013927 bus1=p17udm3824.1.2 bus2=p17ulv9332.1.2 switch=n enabled=y phases=2 Linecode=1P_OH_AL_2/0_Rucina_2

New Line.l(r:p17udm3824-p17udt921lv) Units=km Length=0.0189705 bus1=p17udt921lv.1.2 bus2=p17udm3824.1.2 switch=n enabled=y phases=2 Linecode=1P_OH_AL_2/0_Rucina_2

New Line.l(r:p17udt1158lv-p17ulv4460) Units=km Length=0.0127592 bus1=p17udt1158lv.1.2 bus2=p17ulv4460.1.2 switch=n enabled=y phases=2 Linecode=1P_OH_AL_2/0_Rucina_2

New Line.l(r:p17udt1158lv-p17ulv4491) Units=km Length=0.016750700000000004 bus1=p17udt1158lv.1.2 bus2=p17ulv4491.1.2 switch=n enabled=y phases=2 Linecode=1P_OH_AL_2/0_Rucina_2

New Line.l(r:p17udm4916-p17ulv4476) Units=km Length=0.0158661 bus1=p17udm4916.1.2 bus2=p17ulv4476.1.2 switch=n enabled=y phases=2 Linecode=1P_OH_AL_2/0_Rucina_2

New Line.l(r:p17udm4913-p17ulv4399) Units=km Length=0.0130884 bus1=p17udm4913.1.2 bus2=p17ulv4399.1.2 switch=n enabled=y phases=2 Linecode=1P_OH_AL_2/0_Rucina_2

New Line.l(r:p17udm4913-p17ulv4602) Units=km Length=0.0159932 bus1=p17udm4913.1.2 bus2=p17ulv4602.1.2 switch=n enabled=y phases=2 Linecode=1P_OH_AL_2/0_Rucina_2

New Line.l(r:p17udm4920-p17ulv4587) Units=km Length=0.0113285 bus1=p17udm4920.1.2 bus2=p17ulv4587.1.2 switch=n enabled=y phases=2 Linecode=1P_OH_AL_2/0_Rucina_2

New Line.l(r:p17udm4913-p17udm4920) Units=km Length=0.0173805 bus1=p17udm4913.1.2 bus2=p17udm4920.1.2 switch=n enabled=y phases=2 Linecode=1P_OH_AL_2/0_Rucina_2

New Line.l(r:p17udm4913-p17udm4916) Units=km Length=0.0135289 bus1=p17udm4916.1.2 bus2=p17udm4913.1.2 switch=n enabled=y phases=2 Linecode=1P_OH_AL_2/0_Rucina_2

New Line.l(r:p17udm4916-p17udt1158lv) Units=km Length=0.0135289 bus1=p17udt1158lv.1.2 bus2=p17udm4916.1.2 switch=n enabled=y phases=2 Linecode=1P_OH_AL_2/0_Rucina_2

New Line.l(r:p17udm4918-p17ulv4504) Units=km Length=0.0120899 bus1=p17udm4918.1.2 bus2=p17ulv4504.1.2 switch=n enabled=y phases=2 Linecode=1P_OH_AL_2/0_Rucina_2

New Line.l(r:p17udm4918-p17ulv4509) Units=km Length=0.017144700000000002 bus1=p17udm4918.1.2 bus2=p17ulv4509.1.2 switch=n enabled=y phases=2 Linecode=1P_OH_AL_2/0_Rucina_2

New Line.l(r:p17udm4914-p17ulv4450) Units=km Length=0.0132546 bus1=p17udm4914.1.2 bus2=p17ulv4450.1.2 switch=n enabled=y phases=2 Linecode=1P_OH_AL_2/0_Rucina_2

New Line.l(r:p17udm4914-p17ulv5079) Units=km Length=0.0137863 bus1=p17udm4914.1.2 bus2=p17ulv5079.1.2 switch=n enabled=y phases=2 Linecode=1P_OH_AL_2/0_Rucina_2

New Line.l(r:p17udm4914-p17udm4918) Units=km Length=0.010939400000000002 bus1=p17udm4918.1.2 bus2=p17udm4914.1.2 switch=n enabled=y phases=2 Linecode=1P_OH_AL_2/0_Rucina_2

New Line.l(r:p17udm4918-p17udt1158lv) Units=km Length=0.0135292 bus1=p17udt1158lv.1.2 bus2=p17udm4918.1.2 switch=n enabled=y phases=2 Linecode=1P_OH_AL_2/0_Rucina_2

New Line.l(r:p17udt1159lv-p17ulv4403) Units=km Length=0.012099 bus1=p17udt1159lv.1.2 bus2=p17ulv4403.1.2 switch=n enabled=y phases=2 Linecode=1P_OH_AL_2/0_Rucina_2

New Line.l(r:p17udm4925-p17ulv4481) Units=km Length=0.012024 bus1=p17udm4925.1.2 bus2=p17ulv4481.1.2 switch=n enabled=y phases=2 Linecode=1P_OH_AL_2/0_Rucina_2

New Line.l(r:p17udm4925-p17ulv4499) Units=km Length=0.0135052 bus1=p17udm4925.1.2 bus2=p17ulv4499.1.2 switch=n enabled=y phases=2 Linecode=1P_OH_AL_2/0_Rucina_2

New Line.l(r:p17udm4925-p17udt1159lv) Units=km Length=0.0185677 bus1=p17udt1159lv.1.2 bus2=p17udm4925.1.2 switch=n enabled=y phases=2 Linecode=1P_OH_AL_2/0_Rucina_2

New Line.l(r:p17udm4926-p17ulv4488) Units=km Length=0.0113353 bus1=p17udm4926.1.2 bus2=p17ulv4488.1.2 switch=n enabled=y phases=2 Linecode=1P_OH_AL_2/0_Rucina_2

New Line.l(r:p17udm4926-p17ulv4522) Units=km Length=0.0149582 bus1=p17udm4926.1.2 bus2=p17ulv4522.1.2 switch=n enabled=y phases=2 Linecode=1P_OH_AL_2/0_Rucina_2

New Line.l(r:p17udm4923-p17ulv4402) Units=km Length=0.0158121 bus1=p17udm4923.1.2 bus2=p17ulv4402.1.2 switch=n enabled=y phases=2 Linecode=1P_OH_AL_2/0_Rucina_2

New Line.l(r:p17udm4923-p17udm4926) Units=km Length=0.0150861 bus1=p17udm4926.1.2 bus2=p17udm4923.1.2 switch=n enabled=y phases=2 Linecode=1P_OH_AL_2/0_Rucina_2

New Line.l(r:p17udm4926-p17udt1159lv) Units=km Length=0.015085300000000001 bus1=p17udt1159lv.1.2 bus2=p17udm4926.1.2 switch=n enabled=y phases=2 Linecode=1P_OH_AL_2/0_Rucina_2

New Line.l(r:p17udt1160lv-p17ulv4482) Units=km Length=0.0176007 bus1=p17udt1160lv.1.2 bus2=p17ulv4482.1.2 switch=n enabled=y phases=2 Linecode=1P_OH_AL_2/0_Rucina_2

New Line.l(r:p17udt1160lv-p17ulv4492) Units=km Length=0.0118872 bus1=p17udt1160lv.1.2 bus2=p17ulv4492.1.2 switch=n enabled=y phases=2 Linecode=1P_OH_AL_2/0_Rucina_2

New Line.l(r:p17udm4929-p17ulv4404) Units=km Length=0.0188731 bus1=p17udm4929.1.2 bus2=p17ulv4404.1.2 switch=n enabled=y phases=2 Linecode=1P_OH_AL_2/0_Rucina_2

New Line.l(r:p17udm4929-p17ulv4556) Units=km Length=0.010945 bus1=p17udm4929.1.2 bus2=p17ulv4556.1.2 switch=n enabled=y phases=2 Linecode=1P_OH_AL_2/0_Rucina_2

New Line.l(r:p17udm4929-p17udt1160lv) Units=km Length=0.019892 bus1=p17udt1160lv.1.2 bus2=p17udm4929.1.2 switch=n enabled=y phases=2 Linecode=1P_OH_AL_2/0_Rucina_2

New Line.l(r:p17udm4933-p17ulv4554) Units=km Length=0.011724600000000002 bus1=p17udm4933.1.2 bus2=p17ulv4554.1.2 switch=n enabled=y phases=2 Linecode=1P_OH_AL_2/0_Rucina_2

New Line.l(r:p17udm4930-p17ulv4445) Units=km Length=0.022930200000000005 bus1=p17udm4930.1.2 bus2=p17ulv4445.1.2 switch=n enabled=y phases=2 Linecode=1P_OH_AL_2/0_Rucina_2

New Line.l(r:p17udm4930-p17udm4933) Units=km Length=0.0472924 bus1=p17udm4933.1.2 bus2=p17udm4930.1.2 switch=n enabled=y phases=2 Linecode=1P_OH_AL_4/0_Zuzara_2

New Line.l(r:p17udm4933-p17udt1160lv) Units=km Length=0.019892 bus1=p17udt1160lv.1.2 bus2=p17udm4933.1.2 switch=n enabled=y phases=2 Linecode=1P_OH_AL_2/0_Rucina_2

New Line.l(r:p17udt1161lv-p17ulv4559) Units=km Length=0.014346500000000002 bus1=p17udt1161lv.1.2 bus2=p17ulv4559.1.2 switch=n enabled=y phases=2 Linecode=1P_OH_AL_2/0_Rucina_2

New Line.l(r:p17udt1161lv-p17ulv4853) Units=km Length=0.0163501 bus1=p17udt1161lv.1.2 bus2=p17ulv4853.1.2 switch=n enabled=y phases=2 Linecode=1P_OH_AL_2/0_Rucina_2

New Line.l(r:p17udm4935-p17ulv4405) Units=km Length=0.0137477 bus1=p17udm4935.1.2 bus2=p17ulv4405.1.2 switch=n enabled=y phases=2 Linecode=1P_OH_AL_2/0_Rucina_2

New Line.l(r:p17udm4935-p17ulv4510) Units=km Length=0.0124395 bus1=p17udm4935.1.2 bus2=p17ulv4510.1.2 switch=n enabled=y phases=2 Linecode=1P_OH_AL_2/0_Rucina_2

New Line.l(r:p17udm4935-p17ulv4677) Units=km Length=0.0148251 bus1=p17udm4935.1.2 bus2=p17ulv4677.1.2 switch=n enabled=y phases=2 Linecode=1P_OH_AL_2/0_Rucina_2

New Line.l(r:p17udm4935-p17udt1161lv) Units=km Length=0.0140824 bus1=p17udt1161lv.1.2 bus2=p17udm4935.1.2 switch=n enabled=y phases=2 Linecode=1P_OH_AL_2/0_Rucina_2

New Line.l(r:p17udm4940-p17ulv4885) Units=km Length=0.0144831 bus1=p17udm4940.1.2 bus2=p17ulv4885.1.2 switch=n enabled=y phases=2 Linecode=1P_OH_AL_2/0_Rucina_2

New Line.l(r:p17udm4940-p17ulv5190) Units=km Length=0.0142403 bus1=p17udm4940.1.2 bus2=p17ulv5190.1.2 switch=n enabled=y phases=2 Linecode=1P_OH_AL_2/0_Rucina_2

New Line.l(r:p17udm4940-p17ulv9280) Units=km Length=0.0156255 bus1=p17udm4940.1.2 bus2=p17ulv9280.1.2 switch=n enabled=y phases=2 Linecode=1P_OH_AL_2/0_Rucina_2

New Line.l(r:p17udm4940-p17udt1161lv) Units=km Length=0.10609900000000001 bus1=p17udt1161lv.1.2 bus2=p17udm4940.1.2 switch=n enabled=y phases=2 Linecode=1P_OH_AL_4/0_Zuzara_2

New Line.l(r:p17udt1163lv-p17ulv4408) Units=km Length=0.0211775 bus1=p17udt1163lv.1.2 bus2=p17ulv4408.1.2 switch=n enabled=y phases=2 Linecode=1P_OH_AL_2/0_Rucina_2

New Line.l(r:p17udt1163lv-p17ulv4423) Units=km Length=0.0181997 bus1=p17udt1163lv.1.2 bus2=p17ulv4423.1.2 switch=n enabled=y phases=2 Linecode=1P_OH_AL_2/0_Rucina_2

New Line.l(r:p17udt1163lv-p17ulv4429) Units=km Length=0.0202891 bus1=p17udt1163lv.1.2 bus2=p17ulv4429.1.2 switch=n enabled=y phases=2 Linecode=1P_OH_AL_2/0_Rucina_2

New Line.l(r:p17udt1163lv-p17ulv4448) Units=km Length=0.023867000000000003 bus1=p17udt1163lv.1.2 bus2=p17ulv4448.1.2 switch=n enabled=y phases=2 Linecode=1P_OH_AL_2/0_Rucina_2

New Line.l(r:p17udt1163lv-p17ulv4514) Units=km Length=0.0236168 bus1=p17udt1163lv.1.2 bus2=p17ulv4514.1.2 switch=n enabled=y phases=2 Linecode=1P_OH_AL_2/0_Rucina_2

New Line.l(r:p17udt1163lv-p17ulv4579) Units=km Length=0.026156 bus1=p17udt1163lv.1.2 bus2=p17ulv4579.1.2 switch=n enabled=y phases=2 Linecode=1P_OH_AL_2/0_Rucina_2

New Line.l(r:p17udm4950-p17ulv4453) Units=km Length=0.013850600000000001 bus1=p17udm4950.1.2 bus2=p17ulv4453.1.2 switch=n enabled=y phases=2 Linecode=1P_OH_AL_2/0_Rucina_2

New Line.l(r:p17udm4950-p17ulv4524) Units=km Length=0.0143189 bus1=p17udm4950.1.2 bus2=p17ulv4524.1.2 switch=n enabled=y phases=2 Linecode=1P_OH_AL_2/0_Rucina_2

New Line.l(r:p17udm4950-p17udt1163lv) Units=km Length=0.0417267 bus1=p17udt1163lv.1.2 bus2=p17udm4950.1.2 switch=n enabled=y phases=2 Linecode=1P_OH_AL_4/0_Zuzara_2

New Line.l(r:p17udt1164lv-p17ulv4433) Units=km Length=0.0121521 bus1=p17udt1164lv.1.2 bus2=p17ulv4433.1.2 switch=n enabled=y phases=2 Linecode=1P_OH_AL_2/0_Rucina_2

New Line.l(r:p17udt1164lv-p17ulv4444) Units=km Length=0.0148437 bus1=p17udt1164lv.1.2 bus2=p17ulv4444.1.2 switch=n enabled=y phases=2 Linecode=1P_OH_AL_2/0_Rucina_2

New Line.l(r:p17udt1164lv-p17ulv4480) Units=km Length=0.0166866 bus1=p17udt1164lv.1.2 bus2=p17ulv4480.1.2 switch=n enabled=y phases=2 Linecode=1P_OH_AL_2/0_Rucina_2

New Line.l(r:p17udm4958-p17ulv4592) Units=km Length=0.0123506 bus1=p17udm4958.1.2 bus2=p17ulv4592.1.2 switch=n enabled=y phases=2 Linecode=1P_OH_AL_2/0_Rucina_2

New Line.l(r:p17udm4954-p17ulv4409) Units=km Length=0.0128727 bus1=p17udm4954.1.2 bus2=p17ulv4409.1.2 switch=n enabled=y phases=2 Linecode=1P_OH_AL_2/0_Rucina_2

New Line.l(r:p17udm4954-p17udm4958) Units=km Length=0.013142100000000002 bus1=p17udm4958.1.2 bus2=p17udm4954.1.2 switch=n enabled=y phases=2 Linecode=1P_OH_AL_2/0_Rucina_2

New Line.l(r:p17udm4958-p17udt1164lv) Units=km Length=0.0131361 bus1=p17udt1164lv.1.2 bus2=p17udm4958.1.2 switch=n enabled=y phases=2 Linecode=1P_OH_AL_2/0_Rucina_2

New Line.l(r:p17udt1166lv-p17ulv4411) Units=km Length=0.0159819 bus1=p17udt1166lv.1.2 bus2=p17ulv4411.1.2 switch=n enabled=y phases=2 Linecode=1P_OH_AL_2/0_Rucina_2

New Line.l(r:p17udt1166lv-p17ulv4953) Units=km Length=0.0153024 bus1=p17udt1166lv.1.2 bus2=p17ulv4953.1.2 switch=n enabled=y phases=2 Linecode=1P_OH_AL_2/0_Rucina_2

New Line.l(r:p17udt1166lv-p17ulv5007) Units=km Length=0.0146866 bus1=p17udt1166lv.1.2 bus2=p17ulv5007.1.2 switch=n enabled=y phases=2 Linecode=1P_OH_AL_2/0_Rucina_2

New Line.l(r:p17udm4963-p17ulv4990) Units=km Length=0.0131749 bus1=p17udm4963.1.2 bus2=p17ulv4990.1.2 switch=n enabled=y phases=2 Linecode=1P_OH_AL_2/0_Rucina_2

New Line.l(r:p17udm4963-p17ulv5095) Units=km Length=0.0168063 bus1=p17udm4963.1.2 bus2=p17ulv5095.1.2 switch=n enabled=y phases=2 Linecode=1P_OH_AL_2/0_Rucina_2

New Line.l(r:p17udm4963-p17udt1166lv) Units=km Length=0.0189647 bus1=p17udt1166lv.1.2 bus2=p17udm4963.1.2 switch=n enabled=y phases=2 Linecode=1P_OH_AL_2/0_Rucina_2

New Line.l(r:p17udt1168lv-p17ulv4415) Units=km Length=0.0159505 bus1=p17udt1168lv.1.2 bus2=p17ulv4415.1.2 switch=n enabled=y phases=2 Linecode=1P_OH_AL_2/0_Rucina_2

New Line.l(r:p17udt1168lv-p17ulv4470) Units=km Length=0.0119551 bus1=p17udt1168lv.1.2 bus2=p17ulv4470.1.2 switch=n enabled=y phases=2 Linecode=1P_OH_AL_2/0_Rucina_2

New Line.l(r:p17udt1168lv-p17ulv4521) Units=km Length=0.0175613 bus1=p17udt1168lv.1.2 bus2=p17ulv4521.1.2 switch=n enabled=y phases=2 Linecode=1P_OH_AL_2/0_Rucina_2

New Line.l(r:p17udm4974-p17ulv4461) Units=km Length=0.012480000000000002 bus1=p17udm4974.1.2 bus2=p17ulv4461.1.2 switch=n enabled=y phases=2 Linecode=1P_OH_AL_2/0_Rucina_2

New Line.l(r:p17udm4974-p17ulv4551) Units=km Length=0.0156054 bus1=p17udm4974.1.2 bus2=p17ulv4551.1.2 switch=n enabled=y phases=2 Linecode=1P_OH_AL_2/0_Rucina_2

New Line.l(r:p17udm4978-p17ulv4542) Units=km Length=0.0100955 bus1=p17udm4978.1.2 bus2=p17ulv4542.1.2 switch=n enabled=y phases=2 Linecode=1P_OH_AL_2/0_Rucina_2

New Line.l(r:p17udm4974-p17udm4978) Units=km Length=0.0173805 bus1=p17udm4974.1.2 bus2=p17udm4978.1.2 switch=n enabled=y phases=2 Linecode=1P_OH_AL_2/0_Rucina_2

New Line.l(r:p17udm4974-p17udt1168lv) Units=km Length=0.0173805 bus1=p17udt1168lv.1.2 bus2=p17udm4974.1.2 switch=n enabled=y phases=2 Linecode=1P_OH_AL_2/0_Rucina_2

New Line.l(r:p17udm4976-p17ulv4489) Units=km Length=0.00847812 bus1=p17udm4976.1.2 bus2=p17ulv4489.1.2 switch=n enabled=y phases=2 Linecode=1P_OH_AL_2/0_Rucina_2

New Line.l(r:p17udm4976-p17udt1168lv) Units=km Length=0.0173805 bus1=p17udt1168lv.1.2 bus2=p17udm4976.1.2 switch=n enabled=y phases=2 Linecode=1P_OH_AL_2/0_Rucina_2

New Line.l(r:p17udt1169lv-p17ulv4417) Units=km Length=0.0142918 bus1=p17udt1169lv.1.2 bus2=p17ulv4417.1.2 switch=n enabled=y phases=2 Linecode=1P_OH_AL_2/0_Rucina_2

New Line.l(r:p17udt1169lv-p17ulv4595) Units=km Length=0.0163592 bus1=p17udt1169lv.1.2 bus2=p17ulv4595.1.2 switch=n enabled=y phases=2 Linecode=1P_OH_AL_2/0_Rucina_2

New Line.l(r:p17udm4981-p17ulv4420) Units=km Length=0.0144472 bus1=p17udm4981.1.2 bus2=p17ulv4420.1.2 switch=n enabled=y phases=2 Linecode=1P_OH_AL_2/0_Rucina_2

New Line.l(r:p17udm4981-p17ulv4443) Units=km Length=0.0152168 bus1=p17udm4981.1.2 bus2=p17ulv4443.1.2 switch=n enabled=y phases=2 Linecode=1P_OH_AL_2/0_Rucina_2

New Line.l(r:p17udm4981-p17ulv4573) Units=km Length=0.0159481 bus1=p17udm4981.1.2 bus2=p17ulv4573.1.2 switch=n enabled=y phases=2 Linecode=1P_OH_AL_2/0_Rucina_2

New Line.l(r:p17udm4981-p17udt1169lv) Units=km Length=0.0165742 bus1=p17udt1169lv.1.2 bus2=p17udm4981.1.2 switch=n enabled=y phases=2 Linecode=1P_OH_AL_2/0_Rucina_2

New Line.l(r:p17udm4983-p17ulv4493) Units=km Length=0.0150955 bus1=p17udm4983.1.2 bus2=p17ulv4493.1.2 switch=n enabled=y phases=2 Linecode=1P_OH_AL_2/0_Rucina_2

New Line.l(r:p17udm4983-p17ulv4505) Units=km Length=0.0131487 bus1=p17udm4983.1.2 bus2=p17ulv4505.1.2 switch=n enabled=y phases=2 Linecode=1P_OH_AL_2/0_Rucina_2

New Line.l(r:p17udm4983-p17udt1169lv) Units=km Length=0.0188674 bus1=p17udt1169lv.1.2 bus2=p17udm4983.1.2 switch=n enabled=y phases=2 Linecode=1P_OH_AL_2/0_Rucina_2

New Line.l(r:p17udt1171lv-p17ulv4419) Units=km Length=0.0147222 bus1=p17udt1171lv.1.2 bus2=p17ulv4419.1.2 switch=n enabled=y phases=2 Linecode=1P_OH_AL_2/0_Rucina_2

New Line.l(r:p17udt1171lv-p17ulv4523) Units=km Length=0.0132232 bus1=p17udt1171lv.1.2 bus2=p17ulv4523.1.2 switch=n enabled=y phases=2 Linecode=1P_OH_AL_2/0_Rucina_2

New Line.l(r:p17udm4998-p17ulv4741) Units=km Length=0.012387700000000001 bus1=p17udm4998.1.2 bus2=p17ulv4741.1.2 switch=n enabled=y phases=2 Linecode=1P_OH_AL_2/0_Rucina_2

New Line.l(r:p17udm4996-p17ulv4513) Units=km Length=0.0136587 bus1=p17udm4996.1.2 bus2=p17ulv4513.1.2 switch=n enabled=y phases=2 Linecode=1P_OH_AL_2/0_Rucina_2

New Line.l(r:p17udm4996-p17udm4998) Units=km Length=0.0136947 bus1=p17udm4998.1.2 bus2=p17udm4996.1.2 switch=n enabled=y phases=2 Linecode=1P_OH_AL_2/0_Rucina_2

New Line.l(r:p17udm4998-p17udt1171lv) Units=km Length=0.0152513 bus1=p17udt1171lv.1.2 bus2=p17udm4998.1.2 switch=n enabled=y phases=2 Linecode=1P_OH_AL_2/0_Rucina_2

New Line.l(r:p17udt1172lv-p17ulv4422) Units=km Length=0.0119745 bus1=p17udt1172lv.1.2 bus2=p17ulv4422.1.2 switch=n enabled=y phases=2 Linecode=1P_OH_AL_2/0_Rucina_2

New Line.l(r:p17udt1172lv-p17ulv4538) Units=km Length=0.0148863 bus1=p17udt1172lv.1.2 bus2=p17ulv4538.1.2 switch=n enabled=y phases=2 Linecode=1P_OH_AL_2/0_Rucina_2

New Line.l(r:p17udm5000-p17ulv4436) Units=km Length=0.013716 bus1=p17udm5000.1.2 bus2=p17ulv4436.1.2 switch=n enabled=y phases=2 Linecode=1P_OH_AL_2/0_Rucina_2

New Line.l(r:p17udm5000-p17ulv4478) Units=km Length=0.0154126 bus1=p17udm5000.1.2 bus2=p17ulv4478.1.2 switch=n enabled=y phases=2 Linecode=1P_OH_AL_2/0_Rucina_2

New Line.l(r:p17udm5000-p17udt1172lv) Units=km Length=0.0186512 bus1=p17udt1172lv.1.2 bus2=p17udm5000.1.2 switch=n enabled=y phases=2 Linecode=1P_OH_AL_2/0_Rucina_2

New Line.l(r:p17udt1173lv-p17ulv4425) Units=km Length=0.0104844 bus1=p17udt1173lv.1.2 bus2=p17ulv4425.1.2 switch=n enabled=y phases=2 Linecode=1P_OH_AL_2/0_Rucina_2

New Line.l(r:p17udt1173lv-p17ulv5134) Units=km Length=0.0149121 bus1=p17udt1173lv.1.2 bus2=p17ulv5134.1.2 switch=n enabled=y phases=2 Linecode=1P_OH_AL_2/0_Rucina_2

New Line.l(r:p17udm5007-p17ulv5153) Units=km Length=0.00581489 bus1=p17udm5007.1.2 bus2=p17ulv5153.1.2 switch=n enabled=y phases=2 Linecode=1P_OH_AL_2/0_Rucina_2

New Line.l(r:p17udm5007-p17udt1173lv) Units=km Length=0.0165816 bus1=p17udt1173lv.1.2 bus2=p17udm5007.1.2 switch=n enabled=y phases=2 Linecode=1P_OH_AL_2/0_Rucina_2

New Line.l(r:p17udm5008-p17ulv5166) Units=km Length=0.0136728 bus1=p17udm5008.1.2 bus2=p17ulv5166.1.2 switch=n enabled=y phases=2 Linecode=1P_OH_AL_2/0_Rucina_2

New Line.l(r:p17udm5008-p17ulv5176) Units=km Length=0.015158200000000002 bus1=p17udm5008.1.2 bus2=p17ulv5176.1.2 switch=n enabled=y phases=2 Linecode=1P_OH_AL_2/0_Rucina_2

New Line.l(r:p17udm5004-p17ulv4535) Units=km Length=0.014956900000000002 bus1=p17udm5004.1.2 bus2=p17ulv4535.1.2 switch=n enabled=y phases=2 Linecode=1P_OH_AL_2/0_Rucina_2

New Line.l(r:p17udm5004-p17ulv4558) Units=km Length=0.0160089 bus1=p17udm5004.1.2 bus2=p17ulv4558.1.2 switch=n enabled=y phases=2 Linecode=1P_OH_AL_2/0_Rucina_2

New Line.l(r:p17udm5004-p17udm5008) Units=km Length=0.019700200000000005 bus1=p17udm5008.1.2 bus2=p17udm5004.1.2 switch=n enabled=y phases=2 Linecode=1P_OH_AL_2/0_Rucina_2

New Line.l(r:p17udm5008-p17udt1173lv) Units=km Length=0.016591600000000005 bus1=p17udt1173lv.1.2 bus2=p17udm5008.1.2 switch=n enabled=y phases=2 Linecode=1P_OH_AL_2/0_Rucina_2

New Line.l(r:p17udt1174lv-p17ulv4426) Units=km Length=0.0169066 bus1=p17udt1174lv.1.2 bus2=p17ulv4426.1.2 switch=n enabled=y phases=2 Linecode=1P_OH_AL_2/0_Rucina_2

New Line.l(r:p17udt1174lv-p17ulv4539) Units=km Length=0.0198911 bus1=p17udt1174lv.1.2 bus2=p17ulv4539.1.2 switch=n enabled=y phases=2 Linecode=1P_OH_AL_2/0_Rucina_2

New Line.l(r:p17udt1175lv-p17ulv4430) Units=km Length=0.0152801 bus1=p17udt1175lv.1.2 bus2=p17ulv4430.1.2 switch=n enabled=y phases=2 Linecode=1P_OH_AL_2/0_Rucina_2

New Line.l(r:p17udt1175lv-p17ulv4474) Units=km Length=0.014546800000000002 bus1=p17udt1175lv.1.2 bus2=p17ulv4474.1.2 switch=n enabled=y phases=2 Linecode=1P_OH_AL_2/0_Rucina_2

New Line.l(r:p17udm5014-p17ulv4552) Units=km Length=0.0154696 bus1=p17udm5014.1.2 bus2=p17ulv4552.1.2 switch=n enabled=y phases=2 Linecode=1P_OH_AL_2/0_Rucina_2

New Line.l(r:p17udm5014-p17ulv4597) Units=km Length=0.0129171 bus1=p17udm5014.1.2 bus2=p17ulv4597.1.2 switch=n enabled=y phases=2 Linecode=1P_OH_AL_2/0_Rucina_2

New Line.l(r:p17udm5014-p17udt1175lv) Units=km Length=0.0197102 bus1=p17udt1175lv.1.2 bus2=p17udm5014.1.2 switch=n enabled=y phases=2 Linecode=1P_OH_AL_2/0_Rucina_2

New Line.l(r:p17udm5016-p17ulv5114) Units=km Length=0.013324900000000002 bus1=p17udm5016.1.2 bus2=p17ulv5114.1.2 switch=n enabled=y phases=2 Linecode=1P_OH_AL_2/0_Rucina_2

New Line.l(r:p17udm5016-p17udt1175lv) Units=km Length=0.0566523 bus1=p17udt1175lv.1.2 bus2=p17udm5016.1.2 switch=n enabled=y phases=2 Linecode=1P_OH_AL_4/0_Zuzara_2

New Line.l(r:p17udt1183lv-p17ulv4458) Units=km Length=0.0144703 bus1=p17udt1183lv.1.2 bus2=p17ulv4458.1.2 switch=n enabled=y phases=2 Linecode=1P_OH_AL_2/0_Rucina_2

New Line.l(r:p17udt1183lv-p17ulv4578) Units=km Length=0.0138962 bus1=p17udt1183lv.1.2 bus2=p17ulv4578.1.2 switch=n enabled=y phases=2 Linecode=1P_OH_AL_2/0_Rucina_2

New Line.l(r:p17udt1185lv-p17ulv4466) Units=km Length=0.016190900000000005 bus1=p17udt1185lv.1.2 bus2=p17ulv4466.1.2 switch=n enabled=y phases=2 Linecode=1P_OH_AL_2/0_Rucina_2

New Line.l(r:p17udt1185lv-p17ulv4503) Units=km Length=0.0168744 bus1=p17udt1185lv.1.2 bus2=p17ulv4503.1.2 switch=n enabled=y phases=2 Linecode=1P_OH_AL_2/0_Rucina_2

New Line.l(r:p17udt1186lv-p17ulv4469) Units=km Length=0.014337000000000003 bus1=p17udt1186lv.1.2 bus2=p17ulv4469.1.2 switch=n enabled=y phases=2 Linecode=1P_OH_AL_2/0_Rucina_2

New Line.l(r:p17udt1187lv-p17ulv4525) Units=km Length=0.0126596 bus1=p17udt1187lv.1.2 bus2=p17ulv4525.1.2 switch=n enabled=y phases=2 Linecode=1P_OH_AL_2/0_Rucina_2

New Line.l(r:p17udt1187lv-p17ulv4591) Units=km Length=0.0158555 bus1=p17udt1187lv.1.2 bus2=p17ulv4591.1.2 switch=n enabled=y phases=2 Linecode=1P_OH_AL_2/0_Rucina_2

New Line.l(r:p17udm5058-p17ulv4477) Units=km Length=0.018981300000000003 bus1=p17udm5058.1.2 bus2=p17ulv4477.1.2 switch=n enabled=y phases=2 Linecode=1P_OH_AL_2/0_Rucina_2

New Line.l(r:p17udm5058-p17ulv4479) Units=km Length=0.0176124 bus1=p17udm5058.1.2 bus2=p17ulv4479.1.2 switch=n enabled=y phases=2 Linecode=1P_OH_AL_2/0_Rucina_2

New Line.l(r:p17udm5058-p17udt1187lv) Units=km Length=0.0173486 bus1=p17udt1187lv.1.2 bus2=p17udm5058.1.2 switch=n enabled=y phases=2 Linecode=1P_OH_AL_2/0_Rucina_2

New Line.l(r:p17udt1188lv-p17ulv4487) Units=km Length=0.0168229 bus1=p17udt1188lv.1.2 bus2=p17ulv4487.1.2 switch=n enabled=y phases=2 Linecode=1P_OH_AL_2/0_Rucina_2

New Line.l(r:p17udt1188lv-p17ulv4546) Units=km Length=0.0138813 bus1=p17udt1188lv.1.2 bus2=p17ulv4546.1.2 switch=n enabled=y phases=2 Linecode=1P_OH_AL_2/0_Rucina_2

New Line.l(r:p17udt1188lv-p17ulv4970) Units=km Length=0.0137354 bus1=p17udt1188lv.1.2 bus2=p17ulv4970.1.2 switch=n enabled=y phases=2 Linecode=1P_OH_AL_2/0_Rucina_2
