New Load.load_p17ulv1555_1 conn=wye bus1=p17ulv1555.1 kV=0.12 Vminpu=0.8 Vmaxpu=1.2 model=1 kW=4.264458482130359 kvar=1.0822498654080126 Phases=1 yearly=res_kw_7225_pu

New Load.load_p17ulv1555_2 conn=wye bus1=p17ulv1555.2 kV=0.12 Vminpu=0.8 Vmaxpu=1.2 model=1 kW=4.264458482130359 kvar=1.0822498654080126 Phases=1 yearly=res_kw_7225_pu

New Load.load_p17ulv1558_1 conn=wye bus1=p17ulv1558.1 kV=0.12 Vminpu=0.8 Vmaxpu=1.2 model=1 kW=4.758577951743434 kvar=1.057068356418607 Phases=1 yearly=res_kw_2255_pu

New Load.load_p17ulv1558_2 conn=wye bus1=p17ulv1558.2 kV=0.12 Vminpu=0.8 Vmaxpu=1.2 model=1 kW=4.758577951743434 kvar=1.057068356418607 Phases=1 yearly=res_kw_2255_pu

New Load.load_p17ulv1611_1 conn=wye bus1=p17ulv1611.1 kV=0.12 Vminpu=0.8 Vmaxpu=1.2 model=1 kW=8.813068062304522 kvar=2.1410488851246905 Phases=1 yearly=res_kw_7717_pu

New Load.load_p17ulv1611_2 conn=wye bus1=p17ulv1611.2 kV=0.12 Vminpu=0.8 Vmaxpu=1.2 model=1 kW=8.813068062304522 kvar=2.1410488851246905 Phases=1 yearly=res_kw_7717_pu

New Load.load_p17ulv1636_1 conn=wye bus1=p17ulv1636.1 kV=0.12 Vminpu=0.8 Vmaxpu=1.2 model=1 kW=5.374987363430531 kvar=0.2502445808692977 Phases=1 yearly=res_kw_6607_pu

New Load.load_p17ulv1636_2 conn=wye bus1=p17ulv1636.2 kV=0.12 Vminpu=0.8 Vmaxpu=1.2 model=1 kW=5.374987363430531 kvar=0.2502445808692977 Phases=1 yearly=res_kw_6607_pu

New Load.load_p17ulv1641_1 conn=wye bus1=p17ulv1641.1 kV=0.12 Vminpu=0.8 Vmaxpu=1.2 model=1 kW=2.1838414120774927 kvar=0.7719548317446643 Phases=1 yearly=res_kw_12610_pu

New Load.load_p17ulv1641_2 conn=wye bus1=p17ulv1641.2 kV=0.12 Vminpu=0.8 Vmaxpu=1.2 model=1 kW=2.1838414120774927 kvar=0.7719548317446643 Phases=1 yearly=res_kw_12610_pu

New Load.load_p17ulv1643_1 conn=wye bus1=p17ulv1643.1 kV=0.12 Vminpu=0.8 Vmaxpu=1.2 model=1 kW=1.7501247929276162 kvar=0.7643109722486057 Phases=1 yearly=res_kw_3954_pu

New Load.load_p17ulv1643_2 conn=wye bus1=p17ulv1643.2 kV=0.12 Vminpu=0.8 Vmaxpu=1.2 model=1 kW=1.7501247929276162 kvar=0.7643109722486057 Phases=1 yearly=res_kw_3954_pu

New Load.load_p17ulv1654_1 conn=wye bus1=p17ulv1654.1 kV=0.12 Vminpu=0.8 Vmaxpu=1.2 model=1 kW=2.6224477749097725 kvar=0.939411358234502 Phases=1 yearly=res_kw_6975_pu

New Load.load_p17ulv1654_2 conn=wye bus1=p17ulv1654.2 kV=0.12 Vminpu=0.8 Vmaxpu=1.2 model=1 kW=2.6224477749097725 kvar=0.939411358234502 Phases=1 yearly=res_kw_6975_pu

New Load.load_p17ulv1673_1 conn=wye bus1=p17ulv1673.1 kV=0.12 Vminpu=0.8 Vmaxpu=1.2 model=1 kW=2.2940918969002624 kvar=0.8481135771367235 Phases=1 yearly=res_kw_4402_pu

New Load.load_p17ulv1673_2 conn=wye bus1=p17ulv1673.2 kV=0.12 Vminpu=0.8 Vmaxpu=1.2 model=1 kW=2.2940918969002624 kvar=0.8481135771367235 Phases=1 yearly=res_kw_4402_pu

New Load.load_p17ulv1685_1 conn=wye bus1=p17ulv1654.1 kV=0.12 Vminpu=0.8 Vmaxpu=1.2 model=1 kW=2.588777402735811 kvar=0.9891130162681171 Phases=1 yearly=res_kw_9945_pu

New Load.load_p17ulv1685_2 conn=wye bus1=p17ulv1654.2 kV=0.12 Vminpu=0.8 Vmaxpu=1.2 model=1 kW=2.588777402735811 kvar=0.9891130162681171 Phases=1 yearly=res_kw_9945_pu

New Load.load_p17ulv1696_1 conn=wye bus1=p17ulv1611.1 kV=0.12 Vminpu=0.8 Vmaxpu=1.2 model=1 kW=3.365649812463692 kvar=1.0432502307765892 Phases=1 yearly=res_kw_5006_pu

New Load.load_p17ulv1696_2 conn=wye bus1=p17ulv1611.2 kV=0.12 Vminpu=0.8 Vmaxpu=1.2 model=1 kW=3.365649812463692 kvar=1.0432502307765892 Phases=1 yearly=res_kw_5006_pu

New Load.load_p17ulv3064_1 conn=wye bus1=p17ulv3064.1 kV=0.12 Vminpu=0.8 Vmaxpu=1.2 model=1 kW=6.4634894949111095 kvar=1.3903314868472842 Phases=1 yearly=res_kw_10915_pu

New Load.load_p17ulv3064_2 conn=wye bus1=p17ulv3064.2 kV=0.12 Vminpu=0.8 Vmaxpu=1.2 model=1 kW=6.4634894949111095 kvar=1.3903314868472842 Phases=1 yearly=res_kw_10915_pu

New Load.load_p17ulv3148_1 conn=wye bus1=p17ulv3148.1 kV=0.12 Vminpu=0.8 Vmaxpu=1.2 model=1 kW=3.2478141049679135 kvar=1.1674904307651393 Phases=1 yearly=res_kw_7476_pu

New Load.load_p17ulv3148_2 conn=wye bus1=p17ulv3148.2 kV=0.12 Vminpu=0.8 Vmaxpu=1.2 model=1 kW=3.2478141049679135 kvar=1.1674904307651393 Phases=1 yearly=res_kw_7476_pu

New Load.load_p17ulv3201_1 conn=wye bus1=p17ulv3148.1 kV=0.12 Vminpu=0.8 Vmaxpu=1.2 model=1 kW=2.4477708140814496 kvar=1.2695070292795452 Phases=1 yearly=res_kw_14077_pu

New Load.load_p17ulv3201_2 conn=wye bus1=p17ulv3148.2 kV=0.12 Vminpu=0.8 Vmaxpu=1.2 model=1 kW=2.4477708140814496 kvar=1.2695070292795452 Phases=1 yearly=res_kw_14077_pu

New Load.load_p17ulv3223_1 conn=wye bus1=p17ulv3223.1 kV=0.12 Vminpu=0.8 Vmaxpu=1.2 model=1 kW=2.679689620441751 kvar=0.9077324041357607 Phases=1 yearly=res_kw_6317_pu

New Load.load_p17ulv3223_2 conn=wye bus1=p17ulv3223.2 kV=0.12 Vminpu=0.8 Vmaxpu=1.2 model=1 kW=2.679689620441751 kvar=0.9077324041357607 Phases=1 yearly=res_kw_6317_pu

New Load.load_p17ulv3235_1 conn=wye bus1=p17ulv3235.1 kV=0.12 Vminpu=0.8 Vmaxpu=1.2 model=1 kW=12.590632425061397 kvar=1.6801877704145016 Phases=1 yearly=res_kw_7616_pu

New Load.load_p17ulv3235_2 conn=wye bus1=p17ulv3235.2 kV=0.12 Vminpu=0.8 Vmaxpu=1.2 model=1 kW=12.590632425061397 kvar=1.6801877704145016 Phases=1 yearly=res_kw_7616_pu

New Load.load_p17ulv3259_1 conn=wye bus1=p17ulv3259.1 kV=0.12 Vminpu=0.8 Vmaxpu=1.2 model=1 kW=4.758577951743434 kvar=1.057068356418607 Phases=1 yearly=res_kw_2255_pu

New Load.load_p17ulv3259_2 conn=wye bus1=p17ulv3259.2 kV=0.12 Vminpu=0.8 Vmaxpu=1.2 model=1 kW=4.758577951743434 kvar=1.057068356418607 Phases=1 yearly=res_kw_2255_pu

New Load.load_p17ulv3268_1 conn=wye bus1=p17ulv3268.1 kV=0.12 Vminpu=0.8 Vmaxpu=1.2 model=1 kW=3.075480105983799 kvar=0.9881383339436148 Phases=1 yearly=res_kw_10595_pu

New Load.load_p17ulv3268_2 conn=wye bus1=p17ulv3268.2 kV=0.12 Vminpu=0.8 Vmaxpu=1.2 model=1 kW=3.075480105983799 kvar=0.9881383339436148 Phases=1 yearly=res_kw_10595_pu

New Load.load_p17ulv3291_1 conn=wye bus1=p17ulv3291.1 kV=0.12 Vminpu=0.8 Vmaxpu=1.2 model=1 kW=5.489649194739666 kvar=1.0857002751141642 Phases=1 yearly=res_kw_14862_pu

New Load.load_p17ulv3291_2 conn=wye bus1=p17ulv3291.2 kV=0.12 Vminpu=0.8 Vmaxpu=1.2 model=1 kW=5.489649194739666 kvar=1.0857002751141642 Phases=1 yearly=res_kw_14862_pu

New Load.load_p17ulv3367_1 conn=wye bus1=p17ulv3367.1 kV=0.12 Vminpu=0.8 Vmaxpu=1.2 model=1 kW=1.799969889792979 kvar=0.7055837837850989 Phases=1 yearly=res_kw_3219_pu

New Load.load_p17ulv3367_2 conn=wye bus1=p17ulv3367.2 kV=0.12 Vminpu=0.8 Vmaxpu=1.2 model=1 kW=1.799969889792979 kvar=0.7055837837850989 Phases=1 yearly=res_kw_3219_pu

New Load.load_p17ulv3390_1 conn=wye bus1=p17ulv1636.1 kV=0.12 Vminpu=0.8 Vmaxpu=1.2 model=1 kW=1.6676306342135938 kvar=0.5123446143614628 Phases=1 yearly=res_kw_14135_pu

New Load.load_p17ulv3390_2 conn=wye bus1=p17ulv1636.2 kV=0.12 Vminpu=0.8 Vmaxpu=1.2 model=1 kW=1.6676306342135938 kvar=0.5123446143614628 Phases=1 yearly=res_kw_14135_pu

New Load.load_p17ulv4399_1 conn=wye bus1=p17ulv4399.1 kV=0.12 Vminpu=0.8 Vmaxpu=1.2 model=1 kW=3.467753198752737 kvar=1.0427061800517439 Phases=1 yearly=res_kw_11798_pu

New Load.load_p17ulv4399_2 conn=wye bus1=p17ulv4399.2 kV=0.12 Vminpu=0.8 Vmaxpu=1.2 model=1 kW=3.467753198752737 kvar=1.0427061800517439 Phases=1 yearly=res_kw_11798_pu

New Load.load_p17ulv4402_1 conn=wye bus1=p17ulv4402.1 kV=0.12 Vminpu=0.8 Vmaxpu=1.2 model=1 kW=4.803409170509001 kvar=0.7897252440234324 Phases=1 yearly=res_kw_7591_pu

New Load.load_p17ulv4402_2 conn=wye bus1=p17ulv4402.2 kV=0.12 Vminpu=0.8 Vmaxpu=1.2 model=1 kW=4.803409170509001 kvar=0.7897252440234324 Phases=1 yearly=res_kw_7591_pu

New Load.load_p17ulv4403_1 conn=wye bus1=p17ulv4403.1 kV=0.12 Vminpu=0.8 Vmaxpu=1.2 model=1 kW=3.163532585010919 kvar=0.2110868081047307 Phases=1 yearly=res_kw_13175_pu

New Load.load_p17ulv4403_2 conn=wye bus1=p17ulv4403.2 kV=0.12 Vminpu=0.8 Vmaxpu=1.2 model=1 kW=3.163532585010919 kvar=0.2110868081047307 Phases=1 yearly=res_kw_13175_pu

New Load.load_p17ulv4404_1 conn=wye bus1=p17ulv4404.1 kV=0.12 Vminpu=0.8 Vmaxpu=1.2 model=1 kW=2.398785600945231 kvar=1.1157218527290627 Phases=1 yearly=res_kw_8267_pu

New Load.load_p17ulv4404_2 conn=wye bus1=p17ulv4404.2 kV=0.12 Vminpu=0.8 Vmaxpu=1.2 model=1 kW=2.398785600945231 kvar=1.1157218527290627 Phases=1 yearly=res_kw_8267_pu

New Load.load_p17ulv4405_1 conn=wye bus1=p17ulv4405.1 kV=0.12 Vminpu=0.8 Vmaxpu=1.2 model=1 kW=6.6046300734437695 kvar=1.6615053142491278 Phases=1 yearly=res_kw_14085_pu

New Load.load_p17ulv4405_2 conn=wye bus1=p17ulv4405.2 kV=0.12 Vminpu=0.8 Vmaxpu=1.2 model=1 kW=6.6046300734437695 kvar=1.6615053142491278 Phases=1 yearly=res_kw_14085_pu

New Load.load_p17ulv4406_1 conn=wye bus1=p17ulv4406.1 kV=0.12 Vminpu=0.8 Vmaxpu=1.2 model=1 kW=2.1030887259403688 kvar=0.7159529261783519 Phases=1 yearly=res_kw_11346_pu

New Load.load_p17ulv4406_2 conn=wye bus1=p17ulv4406.2 kV=0.12 Vminpu=0.8 Vmaxpu=1.2 model=1 kW=2.1030887259403688 kvar=0.7159529261783519 Phases=1 yearly=res_kw_11346_pu

New Load.load_p17ulv4408_1 conn=wye bus1=p17ulv4408.1 kV=0.12 Vminpu=0.8 Vmaxpu=1.2 model=1 kW=5.2323213241259054 kvar=1.0532250583565566 Phases=1 yearly=res_kw_1616_pu

New Load.load_p17ulv4408_2 conn=wye bus1=p17ulv4408.2 kV=0.12 Vminpu=0.8 Vmaxpu=1.2 model=1 kW=5.2323213241259054 kvar=1.0532250583565566 Phases=1 yearly=res_kw_1616_pu

New Load.load_p17ulv4409_1 conn=wye bus1=p17ulv4409.1 kV=0.12 Vminpu=0.8 Vmaxpu=1.2 model=1 kW=2.0296094058192193 kvar=0.8851538524476449 Phases=1 yearly=res_kw_9331_pu

New Load.load_p17ulv4409_2 conn=wye bus1=p17ulv4409.2 kV=0.12 Vminpu=0.8 Vmaxpu=1.2 model=1 kW=2.0296094058192193 kvar=0.8851538524476449 Phases=1 yearly=res_kw_9331_pu

New Load.load_p17ulv4411_1 conn=wye bus1=p17ulv4411.1 kV=0.12 Vminpu=0.8 Vmaxpu=1.2 model=1 kW=5.165054288882758 kvar=1.2649126303161744 Phases=1 yearly=res_kw_4496_pu

New Load.load_p17ulv4411_2 conn=wye bus1=p17ulv4411.2 kV=0.12 Vminpu=0.8 Vmaxpu=1.2 model=1 kW=5.165054288882758 kvar=1.2649126303161744 Phases=1 yearly=res_kw_4496_pu

New Load.load_p17ulv4415_1 conn=wye bus1=p17ulv4415.1 kV=0.12 Vminpu=0.8 Vmaxpu=1.2 model=1 kW=5.828469853780653 kvar=0.21450007869014182 Phases=1 yearly=res_kw_8883_pu

New Load.load_p17ulv4415_2 conn=wye bus1=p17ulv4415.2 kV=0.12 Vminpu=0.8 Vmaxpu=1.2 model=1 kW=5.828469853780653 kvar=0.21450007869014182 Phases=1 yearly=res_kw_8883_pu

New Load.load_p17ulv4416_1 conn=wye bus1=p17ulv4416.1 kV=0.12 Vminpu=0.8 Vmaxpu=1.2 model=1 kW=1.9814077971338804 kvar=0.7173927015826042 Phases=1 yearly=res_kw_5366_pu

New Load.load_p17ulv4416_2 conn=wye bus1=p17ulv4416.2 kV=0.12 Vminpu=0.8 Vmaxpu=1.2 model=1 kW=1.9814077971338804 kvar=0.7173927015826042 Phases=1 yearly=res_kw_5366_pu

New Load.load_p17ulv4417_1 conn=wye bus1=p17ulv4417.1 kV=0.12 Vminpu=0.8 Vmaxpu=1.2 model=1 kW=3.7003032177376367 kvar=1.110524272312029 Phases=1 yearly=res_kw_5610_pu

New Load.load_p17ulv4417_2 conn=wye bus1=p17ulv4417.2 kV=0.12 Vminpu=0.8 Vmaxpu=1.2 model=1 kW=3.7003032177376367 kvar=1.110524272312029 Phases=1 yearly=res_kw_5610_pu

New Load.load_p17ulv4419_1 conn=wye bus1=p17ulv4419.1 kV=0.12 Vminpu=0.8 Vmaxpu=1.2 model=1 kW=5.258380787978211 kvar=1.146143151725949 Phases=1 yearly=res_kw_1022_pu

New Load.load_p17ulv4419_2 conn=wye bus1=p17ulv4419.2 kV=0.12 Vminpu=0.8 Vmaxpu=1.2 model=1 kW=5.258380787978211 kvar=1.146143151725949 Phases=1 yearly=res_kw_1022_pu

New Load.load_p17ulv4420_1 conn=wye bus1=p17ulv4420.1 kV=0.12 Vminpu=0.8 Vmaxpu=1.2 model=1 kW=3.8047264527626514 kvar=0.2869646778897783 Phases=1 yearly=res_kw_6602_pu

New Load.load_p17ulv4420_2 conn=wye bus1=p17ulv4420.2 kV=0.12 Vminpu=0.8 Vmaxpu=1.2 model=1 kW=3.8047264527626514 kvar=0.2869646778897783 Phases=1 yearly=res_kw_6602_pu

New Load.load_p17ulv4421_1 conn=wye bus1=p17ulv4421.1 kV=0.12 Vminpu=0.8 Vmaxpu=1.2 model=1 kW=2.6224477749097725 kvar=0.939411358234502 Phases=1 yearly=res_kw_6975_pu

New Load.load_p17ulv4421_2 conn=wye bus1=p17ulv4421.2 kV=0.12 Vminpu=0.8 Vmaxpu=1.2 model=1 kW=2.6224477749097725 kvar=0.939411358234502 Phases=1 yearly=res_kw_6975_pu

New Load.load_p17ulv4422_1 conn=wye bus1=p17ulv4422.1 kV=0.12 Vminpu=0.8 Vmaxpu=1.2 model=1 kW=3.838768193179125 kvar=0.8830620053195501 Phases=1 yearly=res_kw_6872_pu

New Load.load_p17ulv4422_2 conn=wye bus1=p17ulv4422.2 kV=0.12 Vminpu=0.8 Vmaxpu=1.2 model=1 kW=3.838768193179125 kvar=0.8830620053195501 Phases=1 yearly=res_kw_6872_pu

New Load.load_p17ulv4423_1 conn=wye bus1=p17ulv4423.1 kV=0.12 Vminpu=0.8 Vmaxpu=1.2 model=1 kW=2.0456917894194246 kvar=0.8355567736448216 Phases=1 yearly=res_kw_14095_pu

New Load.load_p17ulv4423_2 conn=wye bus1=p17ulv4423.2 kV=0.12 Vminpu=0.8 Vmaxpu=1.2 model=1 kW=2.0456917894194246 kvar=0.8355567736448216 Phases=1 yearly=res_kw_14095_pu

New Load.load_p17ulv4424_1 conn=wye bus1=p17ulv4424.1 kV=0.12 Vminpu=0.8 Vmaxpu=1.2 model=1 kW=3.5354191650969304 kvar=1.021474270254651 Phases=1 yearly=res_kw_9896_pu

New Load.load_p17ulv4424_2 conn=wye bus1=p17ulv4424.2 kV=0.12 Vminpu=0.8 Vmaxpu=1.2 model=1 kW=3.5354191650969304 kvar=1.021474270254651 Phases=1 yearly=res_kw_9896_pu

New Load.load_p17ulv4425_1 conn=wye bus1=p17ulv4425.1 kV=0.12 Vminpu=0.8 Vmaxpu=1.2 model=1 kW=4.178802493278684 kvar=1.1784670344199408 Phases=1 yearly=res_kw_13091_pu

New Load.load_p17ulv4425_2 conn=wye bus1=p17ulv4425.2 kV=0.12 Vminpu=0.8 Vmaxpu=1.2 model=1 kW=4.178802493278684 kvar=1.1784670344199408 Phases=1 yearly=res_kw_13091_pu

New Load.load_p17ulv4426_1 conn=wye bus1=p17ulv4426.1 kV=0.12 Vminpu=0.8 Vmaxpu=1.2 model=1 kW=4.372040389739025 kvar=1.310916772532807 Phases=1 yearly=res_kw_1059_pu

New Load.load_p17ulv4426_2 conn=wye bus1=p17ulv4426.2 kV=0.12 Vminpu=0.8 Vmaxpu=1.2 model=1 kW=4.372040389739025 kvar=1.310916772532807 Phases=1 yearly=res_kw_1059_pu

New Load.load_p17ulv4428_1 conn=wye bus1=p17ulv4404.1 kV=0.12 Vminpu=0.8 Vmaxpu=1.2 model=1 kW=1.7684532076448627 kvar=0.7534217786639859 Phases=1 yearly=res_kw_1517_pu

New Load.load_p17ulv4428_2 conn=wye bus1=p17ulv4404.2 kV=0.12 Vminpu=0.8 Vmaxpu=1.2 model=1 kW=1.7684532076448627 kvar=0.7534217786639859 Phases=1 yearly=res_kw_1517_pu

New Load.load_p17ulv4429_1 conn=wye bus1=p17ulv4429.1 kV=0.12 Vminpu=0.8 Vmaxpu=1.2 model=1 kW=5.374987363430531 kvar=0.2502445808692977 Phases=1 yearly=res_kw_6607_pu

New Load.load_p17ulv4429_2 conn=wye bus1=p17ulv4429.2 kV=0.12 Vminpu=0.8 Vmaxpu=1.2 model=1 kW=5.374987363430531 kvar=0.2502445808692977 Phases=1 yearly=res_kw_6607_pu

New Load.load_p17ulv4430_1 conn=wye bus1=p17ulv4430.1 kV=0.12 Vminpu=0.8 Vmaxpu=1.2 model=1 kW=16.491646532762676 kvar=1.906544164089903 Phases=1 yearly=res_kw_13140_pu

New Load.load_p17ulv4430_2 conn=wye bus1=p17ulv4430.2 kV=0.12 Vminpu=0.8 Vmaxpu=1.2 model=1 kW=16.491646532762676 kvar=1.906544164089903 Phases=1 yearly=res_kw_13140_pu

New Load.load_p17ulv4432_1 conn=wye bus1=p17ulv4432.1 kV=0.12 Vminpu=0.8 Vmaxpu=1.2 model=1 kW=7.8801930784369265 kvar=1.0115137645096066 Phases=1 yearly=res_kw_13840_pu

New Load.load_p17ulv4432_2 conn=wye bus1=p17ulv4432.2 kV=0.12 Vminpu=0.8 Vmaxpu=1.2 model=1 kW=7.8801930784369265 kvar=1.0115137645096066 Phases=1 yearly=res_kw_13840_pu

New Load.load_p17ulv4433_1 conn=wye bus1=p17ulv4433.1 kV=0.12 Vminpu=0.8 Vmaxpu=1.2 model=1 kW=4.471578271195987 kvar=0.825794355415064 Phases=1 yearly=res_kw_8478_pu

New Load.load_p17ulv4433_2 conn=wye bus1=p17ulv4433.2 kV=0.12 Vminpu=0.8 Vmaxpu=1.2 model=1 kW=4.471578271195987 kvar=0.825794355415064 Phases=1 yearly=res_kw_8478_pu

New Load.load_p17ulv4436_1 conn=wye bus1=p17ulv4436.1 kV=0.12 Vminpu=0.8 Vmaxpu=1.2 model=1 kW=2.588777402735811 kvar=0.9891130162681171 Phases=1 yearly=res_kw_9945_pu

New Load.load_p17ulv4436_2 conn=wye bus1=p17ulv4436.2 kV=0.12 Vminpu=0.8 Vmaxpu=1.2 model=1 kW=2.588777402735811 kvar=0.9891130162681171 Phases=1 yearly=res_kw_9945_pu

New Load.load_p17ulv4437_1 conn=wye bus1=p17ulv4437.1 kV=0.12 Vminpu=0.8 Vmaxpu=1.2 model=1 kW=2.0240502132333855 kvar=0.5295456567023789 Phases=1 yearly=res_kw_10487_pu

New Load.load_p17ulv4437_2 conn=wye bus1=p17ulv4437.2 kV=0.12 Vminpu=0.8 Vmaxpu=1.2 model=1 kW=2.0240502132333855 kvar=0.5295456567023789 Phases=1 yearly=res_kw_10487_pu

New Load.load_p17ulv4438_1 conn=wye bus1=p17ulv4438.1 kV=0.12 Vminpu=0.8 Vmaxpu=1.2 model=1 kW=2.863627522574053 kvar=0.2871070851272786 Phases=1 yearly=res_kw_9881_pu

New Load.load_p17ulv4438_2 conn=wye bus1=p17ulv4438.2 kV=0.12 Vminpu=0.8 Vmaxpu=1.2 model=1 kW=2.863627522574053 kvar=0.2871070851272786 Phases=1 yearly=res_kw_9881_pu

New Load.load_p17ulv4442_1 conn=wye bus1=p17ulv4442.1 kV=0.12 Vminpu=0.8 Vmaxpu=1.2 model=1 kW=2.175848902321112 kvar=0.8167524537376402 Phases=1 yearly=res_kw_13015_pu

New Load.load_p17ulv4442_2 conn=wye bus1=p17ulv4442.2 kV=0.12 Vminpu=0.8 Vmaxpu=1.2 model=1 kW=2.175848902321112 kvar=0.8167524537376402 Phases=1 yearly=res_kw_13015_pu

New Load.load_p17ulv4443_1 conn=wye bus1=p17ulv4443.1 kV=0.12 Vminpu=0.8 Vmaxpu=1.2 model=1 kW=2.863627522574053 kvar=0.2871070851272786 Phases=1 yearly=res_kw_9881_pu

New Load.load_p17ulv4443_2 conn=wye bus1=p17ulv4443.2 kV=0.12 Vminpu=0.8 Vmaxpu=1.2 model=1 kW=2.863627522574053 kvar=0.2871070851272786 Phases=1 yearly=res_kw_9881_pu

New Load.load_p17ulv4444_1 conn=wye bus1=p17ulv4444.1 kV=0.12 Vminpu=0.8 Vmaxpu=1.2 model=1 kW=1.512570468260857 kvar=0.34925944632648986 Phases=1 yearly=com_kw_32244_pu

New Load.load_p17ulv4444_2 conn=wye bus1=p17ulv4444.2 kV=0.12 Vminpu=0.8 Vmaxpu=1.2 model=1 kW=1.512570468260857 kvar=0.34925944632648986 Phases=1 yearly=com_kw_32244_pu

New Load.load_p17ulv4445_1 conn=wye bus1=p17ulv4445.1 kV=0.12 Vminpu=0.8 Vmaxpu=1.2 model=1 kW=1.3730070919706976 kvar=0.6087167069548624 Phases=1 yearly=res_kw_2400_pu

New Load.load_p17ulv4445_2 conn=wye bus1=p17ulv4445.2 kV=0.12 Vminpu=0.8 Vmaxpu=1.2 model=1 kW=1.3730070919706976 kvar=0.6087167069548624 Phases=1 yearly=res_kw_2400_pu

New Load.load_p17ulv4448_1 conn=wye bus1=p17ulv4448.1 kV=0.12 Vminpu=0.8 Vmaxpu=1.2 model=1 kW=1.4027348768866257 kvar=0.4688021737709432 Phases=1 yearly=res_kw_11802_pu

New Load.load_p17ulv4448_2 conn=wye bus1=p17ulv4448.2 kV=0.12 Vminpu=0.8 Vmaxpu=1.2 model=1 kW=1.4027348768866257 kvar=0.4688021737709432 Phases=1 yearly=res_kw_11802_pu

New Load.load_p17ulv4450_1 conn=wye bus1=p17ulv4450.1 kV=0.12 Vminpu=0.8 Vmaxpu=1.2 model=1 kW=12.590632425061397 kvar=1.6801877704145016 Phases=1 yearly=res_kw_7616_pu

New Load.load_p17ulv4450_2 conn=wye bus1=p17ulv4450.2 kV=0.12 Vminpu=0.8 Vmaxpu=1.2 model=1 kW=12.590632425061397 kvar=1.6801877704145016 Phases=1 yearly=res_kw_7616_pu

New Load.load_p17ulv4451_1 conn=wye bus1=p17ulv4451.1 kV=0.12 Vminpu=0.8 Vmaxpu=1.2 model=1 kW=2.0456917894194246 kvar=0.8355567736448216 Phases=1 yearly=res_kw_14095_pu

New Load.load_p17ulv4451_2 conn=wye bus1=p17ulv4451.2 kV=0.12 Vminpu=0.8 Vmaxpu=1.2 model=1 kW=2.0456917894194246 kvar=0.8355567736448216 Phases=1 yearly=res_kw_14095_pu

New Load.load_p17ulv4453_1 conn=wye bus1=p17ulv4453.1 kV=0.12 Vminpu=0.8 Vmaxpu=1.2 model=1 kW=1.831328540778252 kvar=0.659725420804376 Phases=1 yearly=res_kw_13554_pu

New Load.load_p17ulv4453_2 conn=wye bus1=p17ulv4453.2 kV=0.12 Vminpu=0.8 Vmaxpu=1.2 model=1 kW=1.831328540778252 kvar=0.659725420804376 Phases=1 yearly=res_kw_13554_pu

New Load.load_p17ulv4458_1 conn=wye bus1=p17ulv4458.1 kV=0.12 Vminpu=0.8 Vmaxpu=1.2 model=1 kW=4.399315336741001 kvar=0.7832826749485223 Phases=1 yearly=res_kw_8509_pu

New Load.load_p17ulv4458_2 conn=wye bus1=p17ulv4458.2 kV=0.12 Vminpu=0.8 Vmaxpu=1.2 model=1 kW=4.399315336741001 kvar=0.7832826749485223 Phases=1 yearly=res_kw_8509_pu

New Load.load_p17ulv4459_1 conn=wye bus1=p17ulv4424.1 kV=0.12 Vminpu=0.8 Vmaxpu=1.2 model=1 kW=2.695474118531042 kvar=0.5608961517823988 Phases=1 yearly=res_kw_5091_pu

New Load.load_p17ulv4459_2 conn=wye bus1=p17ulv4424.2 kV=0.12 Vminpu=0.8 Vmaxpu=1.2 model=1 kW=2.695474118531042 kvar=0.5608961517823988 Phases=1 yearly=res_kw_5091_pu

New Load.load_p17ulv4460_1 conn=wye bus1=p17ulv4460.1 kV=0.12 Vminpu=0.8 Vmaxpu=1.2 model=1 kW=2.175848902321112 kvar=0.8167524537376402 Phases=1 yearly=res_kw_13015_pu

New Load.load_p17ulv4460_2 conn=wye bus1=p17ulv4460.2 kV=0.12 Vminpu=0.8 Vmaxpu=1.2 model=1 kW=2.175848902321112 kvar=0.8167524537376402 Phases=1 yearly=res_kw_13015_pu

New Load.load_p17ulv4461_1 conn=wye bus1=p17ulv4461.1 kV=0.12 Vminpu=0.8 Vmaxpu=1.2 model=1 kW=2.397134508382571 kvar=1.1231662296606286 Phases=1 yearly=res_kw_10452_pu

New Load.load_p17ulv4461_2 conn=wye bus1=p17ulv4461.2 kV=0.12 Vminpu=0.8 Vmaxpu=1.2 model=1 kW=2.397134508382571 kvar=1.1231662296606286 Phases=1 yearly=res_kw_10452_pu

New Load.load_p17ulv4466_1 conn=wye bus1=p17ulv4466.1 kV=0.12 Vminpu=0.8 Vmaxpu=1.2 model=1 kW=4.968275249385869 kvar=0.8140550101159545 Phases=1 yearly=res_kw_3376_pu

New Load.load_p17ulv4466_2 conn=wye bus1=p17ulv4466.2 kV=0.12 Vminpu=0.8 Vmaxpu=1.2 model=1 kW=4.968275249385869 kvar=0.8140550101159545 Phases=1 yearly=res_kw_3376_pu

New Load.load_p17ulv4467_1 conn=wye bus1=p17ulv4467.1 kV=0.12 Vminpu=0.8 Vmaxpu=1.2 model=1 kW=3.8224935171292986 kvar=1.1273423516871173 Phases=1 yearly=res_kw_1140_pu

New Load.load_p17ulv4467_2 conn=wye bus1=p17ulv4467.2 kV=0.12 Vminpu=0.8 Vmaxpu=1.2 model=1 kW=3.8224935171292986 kvar=1.1273423516871173 Phases=1 yearly=res_kw_1140_pu

New Load.load_p17ulv4468_1 conn=wye bus1=p17ulv4468.1 kV=0.12 Vminpu=0.8 Vmaxpu=1.2 model=1 kW=3.756100999166533 kvar=0.1794980420068588 Phases=1 yearly=res_kw_12525_pu

New Load.load_p17ulv4468_2 conn=wye bus1=p17ulv4468.2 kV=0.12 Vminpu=0.8 Vmaxpu=1.2 model=1 kW=3.756100999166533 kvar=0.1794980420068588 Phases=1 yearly=res_kw_12525_pu

New Load.load_p17ulv4469_1 conn=wye bus1=p17ulv4469.1 kV=0.12 Vminpu=0.8 Vmaxpu=1.2 model=1 kW=5.116769162933101 kvar=1.3894690735690358 Phases=1 yearly=res_kw_4976_pu

New Load.load_p17ulv4469_2 conn=wye bus1=p17ulv4469.2 kV=0.12 Vminpu=0.8 Vmaxpu=1.2 model=1 kW=5.116769162933101 kvar=1.3894690735690358 Phases=1 yearly=res_kw_4976_pu

New Load.load_p17ulv4470_1 conn=wye bus1=p17ulv4470.1 kV=0.12 Vminpu=0.8 Vmaxpu=1.2 model=1 kW=2.863627522574053 kvar=0.2871070851272786 Phases=1 yearly=res_kw_9881_pu

New Load.load_p17ulv4470_2 conn=wye bus1=p17ulv4470.2 kV=0.12 Vminpu=0.8 Vmaxpu=1.2 model=1 kW=2.863627522574053 kvar=0.2871070851272786 Phases=1 yearly=res_kw_9881_pu

New Load.load_p17ulv4474_1 conn=wye bus1=p17ulv4474.1 kV=0.12 Vminpu=0.8 Vmaxpu=1.2 model=1 kW=1.831328540778252 kvar=0.659725420804376 Phases=1 yearly=res_kw_13554_pu

New Load.load_p17ulv4474_2 conn=wye bus1=p17ulv4474.2 kV=0.12 Vminpu=0.8 Vmaxpu=1.2 model=1 kW=1.831328540778252 kvar=0.659725420804376 Phases=1 yearly=res_kw_13554_pu

New Load.load_p17ulv4476_1 conn=wye bus1=p17ulv4476.1 kV=0.12 Vminpu=0.8 Vmaxpu=1.2 model=1 kW=2.588777402735811 kvar=0.9891130162681171 Phases=1 yearly=res_kw_9945_pu

New Load.load_p17ulv4476_2 conn=wye bus1=p17ulv4476.2 kV=0.12 Vminpu=0.8 Vmaxpu=1.2 model=1 kW=2.588777402735811 kvar=0.9891130162681171 Phases=1 yearly=res_kw_9945_pu

New Load.load_p17ulv4477_1 conn=wye bus1=p17ulv4477.1 kV=0.12 Vminpu=0.8 Vmaxpu=1.2 model=1 kW=2.500809458533722 kvar=0.7674553545516488 Phases=1 yearly=res_kw_14711_pu

New Load.load_p17ulv4477_2 conn=wye bus1=p17ulv4477.2 kV=0.12 Vminpu=0.8 Vmaxpu=1.2 model=1 kW=2.500809458533722 kvar=0.7674553545516488 Phases=1 yearly=res_kw_14711_pu

New Load.load_p17ulv4478_1 conn=wye bus1=p17ulv4478.1 kV=0.12 Vminpu=0.8 Vmaxpu=1.2 model=1 kW=2.054093584716578 kvar=0.9114545444360403 Phases=1 yearly=res_kw_2763_pu

New Load.load_p17ulv4478_2 conn=wye bus1=p17ulv4478.2 kV=0.12 Vminpu=0.8 Vmaxpu=1.2 model=1 kW=2.054093584716578 kvar=0.9114545444360403 Phases=1 yearly=res_kw_2763_pu

New Load.load_p17ulv4479_1 conn=wye bus1=p17ulv4479.1 kV=0.12 Vminpu=0.8 Vmaxpu=1.2 model=1 kW=2.9233060787231575 kvar=1.431469772224645 Phases=1 yearly=res_kw_5155_pu

New Load.load_p17ulv4479_2 conn=wye bus1=p17ulv4479.2 kV=0.12 Vminpu=0.8 Vmaxpu=1.2 model=1 kW=2.9233060787231575 kvar=1.431469772224645 Phases=1 yearly=res_kw_5155_pu

New Load.load_p17ulv4480_1 conn=wye bus1=p17ulv4480.1 kV=0.12 Vminpu=0.8 Vmaxpu=1.2 model=1 kW=2.606959916668558 kvar=0.5550307077474157 Phases=1 yearly=com_kw_33605_pu

New Load.load_p17ulv4480_2 conn=wye bus1=p17ulv4480.2 kV=0.12 Vminpu=0.8 Vmaxpu=1.2 model=1 kW=2.606959916668558 kvar=0.5550307077474157 Phases=1 yearly=com_kw_33605_pu

New Load.load_p17ulv4481_1 conn=wye bus1=p17ulv4481.1 kV=0.12 Vminpu=0.8 Vmaxpu=1.2 model=1 kW=3.837480022068555 kvar=0.5676106241941118 Phases=1 yearly=res_kw_845_pu

New Load.load_p17ulv4481_2 conn=wye bus1=p17ulv4481.2 kV=0.12 Vminpu=0.8 Vmaxpu=1.2 model=1 kW=3.837480022068555 kvar=0.5676106241941118 Phases=1 yearly=res_kw_845_pu

New Load.load_p17ulv4482_1 conn=wye bus1=p17ulv4482.1 kV=0.12 Vminpu=0.8 Vmaxpu=1.2 model=1 kW=1.7684532076448627 kvar=0.7534217786639859 Phases=1 yearly=res_kw_1517_pu

New Load.load_p17ulv4482_2 conn=wye bus1=p17ulv4482.2 kV=0.12 Vminpu=0.8 Vmaxpu=1.2 model=1 kW=1.7684532076448627 kvar=0.7534217786639859 Phases=1 yearly=res_kw_1517_pu

New Load.load_p17ulv4486_1 conn=wye bus1=p17ulv4486.1 kV=0.12 Vminpu=0.8 Vmaxpu=1.2 model=1 kW=3.163532585010919 kvar=0.2110868081047307 Phases=1 yearly=res_kw_13175_pu

New Load.load_p17ulv4486_2 conn=wye bus1=p17ulv4486.2 kV=0.12 Vminpu=0.8 Vmaxpu=1.2 model=1 kW=3.163532585010919 kvar=0.2110868081047307 Phases=1 yearly=res_kw_13175_pu

New Load.load_p17ulv4487_1 conn=wye bus1=p17ulv4487.1 kV=0.12 Vminpu=0.8 Vmaxpu=1.2 model=1 kW=4.054189494385338 kvar=0.9711233406003738 Phases=1 yearly=res_kw_6230_pu

New Load.load_p17ulv4487_2 conn=wye bus1=p17ulv4487.2 kV=0.12 Vminpu=0.8 Vmaxpu=1.2 model=1 kW=4.054189494385338 kvar=0.9711233406003738 Phases=1 yearly=res_kw_6230_pu

New Load.load_p17ulv4488_1 conn=wye bus1=p17ulv4488.1 kV=0.12 Vminpu=0.8 Vmaxpu=1.2 model=1 kW=1.2499573396933334 kvar=0.5438089670556842 Phases=1 yearly=res_kw_14470_pu

New Load.load_p17ulv4488_2 conn=wye bus1=p17ulv4488.2 kV=0.12 Vminpu=0.8 Vmaxpu=1.2 model=1 kW=1.2499573396933334 kvar=0.5438089670556842 Phases=1 yearly=res_kw_14470_pu

New Load.load_p17ulv4489_1 conn=wye bus1=p17ulv4489.1 kV=0.12 Vminpu=0.8 Vmaxpu=1.2 model=1 kW=3.5354191650969304 kvar=1.021474270254651 Phases=1 yearly=res_kw_9896_pu

New Load.load_p17ulv4489_2 conn=wye bus1=p17ulv4489.2 kV=0.12 Vminpu=0.8 Vmaxpu=1.2 model=1 kW=3.5354191650969304 kvar=1.021474270254651 Phases=1 yearly=res_kw_9896_pu

New Load.load_p17ulv4490_1 conn=wye bus1=p17ulv4436.1 kV=0.12 Vminpu=0.8 Vmaxpu=1.2 model=1 kW=2.420833334058086 kvar=0.7706826280690459 Phases=1 yearly=res_kw_4011_pu

New Load.load_p17ulv4490_2 conn=wye bus1=p17ulv4436.2 kV=0.12 Vminpu=0.8 Vmaxpu=1.2 model=1 kW=2.420833334058086 kvar=0.7706826280690459 Phases=1 yearly=res_kw_4011_pu

New Load.load_p17ulv4491_1 conn=wye bus1=p17ulv4491.1 kV=0.12 Vminpu=0.8 Vmaxpu=1.2 model=1 kW=3.837480022068555 kvar=0.5676106241941118 Phases=1 yearly=res_kw_845_pu

New Load.load_p17ulv4491_2 conn=wye bus1=p17ulv4491.2 kV=0.12 Vminpu=0.8 Vmaxpu=1.2 model=1 kW=3.837480022068555 kvar=0.5676106241941118 Phases=1 yearly=res_kw_845_pu

New Load.load_p17ulv4492_1 conn=wye bus1=p17ulv4492.1 kV=0.12 Vminpu=0.8 Vmaxpu=1.2 model=1 kW=1.6497679521730204 kvar=0.7381235788904033 Phases=1 yearly=res_kw_13589_pu

New Load.load_p17ulv4492_2 conn=wye bus1=p17ulv4492.2 kV=0.12 Vminpu=0.8 Vmaxpu=1.2 model=1 kW=1.6497679521730204 kvar=0.7381235788904033 Phases=1 yearly=res_kw_13589_pu

New Load.load_p17ulv4493_1 conn=wye bus1=p17ulv4493.1 kV=0.12 Vminpu=0.8 Vmaxpu=1.2 model=1 kW=2.175848902321112 kvar=0.8167524537376402 Phases=1 yearly=res_kw_13015_pu

New Load.load_p17ulv4493_2 conn=wye bus1=p17ulv4493.2 kV=0.12 Vminpu=0.8 Vmaxpu=1.2 model=1 kW=2.175848902321112 kvar=0.8167524537376402 Phases=1 yearly=res_kw_13015_pu

New Load.load_p17ulv4495_1 conn=wye bus1=p17ulv4495.1 kV=0.12 Vminpu=0.8 Vmaxpu=1.2 model=1 kW=2.1838414120774927 kvar=0.7719548317446643 Phases=1 yearly=res_kw_12610_pu

New Load.load_p17ulv4495_2 conn=wye bus1=p17ulv4495.2 kV=0.12 Vminpu=0.8 Vmaxpu=1.2 model=1 kW=2.1838414120774927 kvar=0.7719548317446643 Phases=1 yearly=res_kw_12610_pu

New Load.load_p17ulv4496_1 conn=wye bus1=p17ulv4422.1 kV=0.12 Vminpu=0.8 Vmaxpu=1.2 model=1 kW=2.054093584716578 kvar=0.9114545444360403 Phases=1 yearly=res_kw_2763_pu

New Load.load_p17ulv4496_2 conn=wye bus1=p17ulv4422.2 kV=0.12 Vminpu=0.8 Vmaxpu=1.2 model=1 kW=2.054093584716578 kvar=0.9114545444360403 Phases=1 yearly=res_kw_2763_pu

New Load.load_p17ulv4497_1 conn=wye bus1=p17ulv4497.1 kV=0.12 Vminpu=0.8 Vmaxpu=1.2 model=1 kW=1.2499573396933334 kvar=0.5438089670556842 Phases=1 yearly=res_kw_14470_pu

New Load.load_p17ulv4497_2 conn=wye bus1=p17ulv4497.2 kV=0.12 Vminpu=0.8 Vmaxpu=1.2 model=1 kW=1.2499573396933334 kvar=0.5438089670556842 Phases=1 yearly=res_kw_14470_pu

New Load.load_p17ulv4499_1 conn=wye bus1=p17ulv4499.1 kV=0.12 Vminpu=0.8 Vmaxpu=1.2 model=1 kW=2.8188960312458 kvar=0.7564306044311911 Phases=1 yearly=res_kw_6255_pu

New Load.load_p17ulv4499_2 conn=wye bus1=p17ulv4499.2 kV=0.12 Vminpu=0.8 Vmaxpu=1.2 model=1 kW=2.8188960312458 kvar=0.7564306044311911 Phases=1 yearly=res_kw_6255_pu

New Load.load_p17ulv4500_1 conn=wye bus1=p17ulv4500.1 kV=0.12 Vminpu=0.8 Vmaxpu=1.2 model=1 kW=12.590632425061397 kvar=1.6801877704145016 Phases=1 yearly=res_kw_7616_pu

New Load.load_p17ulv4500_2 conn=wye bus1=p17ulv4500.2 kV=0.12 Vminpu=0.8 Vmaxpu=1.2 model=1 kW=12.590632425061397 kvar=1.6801877704145016 Phases=1 yearly=res_kw_7616_pu

New Load.load_p17ulv4501_1 conn=wye bus1=p17ulv4501.1 kV=0.12 Vminpu=0.8 Vmaxpu=1.2 model=1 kW=12.590632425061397 kvar=1.6801877704145016 Phases=1 yearly=res_kw_7616_pu

New Load.load_p17ulv4501_2 conn=wye bus1=p17ulv4501.2 kV=0.12 Vminpu=0.8 Vmaxpu=1.2 model=1 kW=12.590632425061397 kvar=1.6801877704145016 Phases=1 yearly=res_kw_7616_pu

New Load.load_p17ulv4502_1 conn=wye bus1=p17ulv4470.1 kV=0.12 Vminpu=0.8 Vmaxpu=1.2 model=1 kW=2.031958415285712 kvar=0.13812287839494472 Phases=1 yearly=res_kw_11842_pu

New Load.load_p17ulv4502_2 conn=wye bus1=p17ulv4470.2 kV=0.12 Vminpu=0.8 Vmaxpu=1.2 model=1 kW=2.031958415285712 kvar=0.13812287839494472 Phases=1 yearly=res_kw_11842_pu
