New Loadshape.SFO_38.0111_-121.9348_45_135 npts= 35040 interval=0.25 mult = (file=../../../../../profiles/SFO_38.0111_-121.9348_45_135.csv)

New Loadshape.SFO_37.9742_-121.9348_15_135 npts= 35040 interval=0.25 mult = (file=../../../../../profiles/SFO_37.9742_-121.9348_15_135.csv)

New Loadshape.SFO_37.9742_-121.9348_35_90 npts= 35040 interval=0.25 mult = (file=../../../../../profiles/SFO_37.9742_-121.9348_35_90.csv)

New Loadshape.SFO_37.9742_-121.9348_25_270 npts= 35040 interval=0.25 mult = (file=../../../../../profiles/SFO_37.9742_-121.9348_25_270.csv)

New Loadshape.SFO_37.9742_-121.9348_25_180 npts= 35040 interval=0.25 mult = (file=../../../../../profiles/SFO_37.9742_-121.9348_25_180.csv)

New Loadshape.SFO_37.9742_-121.9348_25_90 npts= 35040 interval=0.25 mult = (file=../../../../../profiles/SFO_37.9742_-121.9348_25_90.csv)

New Loadshape.SFO_37.9742_-121.9348_15_225 npts= 35040 interval=0.25 mult = (file=../../../../../profiles/SFO_37.9742_-121.9348_15_225.csv)

New Loadshape.SFO_37.9742_-121.9348_35_180 npts= 35040 interval=0.25 mult = (file=../../../../../profiles/SFO_37.9742_-121.9348_35_180.csv)

New Loadshape.SFO_37.9742_-121.9348_15_180 npts= 35040 interval=0.25 mult = (file=../../../../../profiles/SFO_37.9742_-121.9348_15_180.csv)

New Loadshape.SFO_37.9742_-121.9348_35_135 npts= 35040 interval=0.25 mult = (file=../../../../../profiles/SFO_37.9742_-121.9348_35_135.csv)

New Loadshape.SFO_37.9742_-121.9348_25_135 npts= 35040 interval=0.25 mult = (file=../../../../../profiles/SFO_37.9742_-121.9348_25_135.csv)

New Loadshape.SFO_37.9742_-121.9348_45_135 npts= 35040 interval=0.25 mult = (file=../../../../../profiles/SFO_37.9742_-121.9348_45_135.csv)

New Loadshape.SFO_37.9742_-121.9348_15_90 npts= 35040 interval=0.25 mult = (file=../../../../../profiles/SFO_37.9742_-121.9348_15_90.csv)

New Loadshape.SFO_38.0111_-121.9348_15_180 npts= 35040 interval=0.25 mult = (file=../../../../../profiles/SFO_38.0111_-121.9348_15_180.csv)

New Loadshape.SFO_37.9742_-121.9348_45_225 npts= 35040 interval=0.25 mult = (file=../../../../../profiles/SFO_37.9742_-121.9348_45_225.csv)

New Loadshape.SFO_37.9742_-121.9348_35_270 npts= 35040 interval=0.25 mult = (file=../../../../../profiles/SFO_37.9742_-121.9348_35_270.csv)

New Loadshape.SFO_38.0111_-121.9348_35_135 npts= 35040 interval=0.25 mult = (file=../../../../../profiles/SFO_38.0111_-121.9348_35_135.csv)

New Loadshape.SFO_37.9742_-121.9348_25_225 npts= 35040 interval=0.25 mult = (file=../../../../../profiles/SFO_37.9742_-121.9348_25_225.csv)

New Loadshape.SFO_37.9742_-121.9348_15_270 npts= 35040 interval=0.25 mult = (file=../../../../../profiles/SFO_37.9742_-121.9348_15_270.csv)

New Loadshape.SFO_38.0111_-121.9348_25_270 npts= 35040 interval=0.25 mult = (file=../../../../../profiles/SFO_38.0111_-121.9348_25_270.csv)

New Loadshape.SFO_37.9742_-121.9348_35_225 npts= 35040 interval=0.25 mult = (file=../../../../../profiles/SFO_37.9742_-121.9348_35_225.csv)

New Loadshape.SFO_38.0111_-121.9348_35_90 npts= 35040 interval=0.25 mult = (file=../../../../../profiles/SFO_38.0111_-121.9348_35_90.csv)

New Loadshape.SFO_37.9742_-121.9348_45_270 npts= 35040 interval=0.25 mult = (file=../../../../../profiles/SFO_37.9742_-121.9348_45_270.csv)

New Loadshape.SFO_37.9742_-121.9348_55_180 npts= 35040 interval=0.25 mult = (file=../../../../../profiles/SFO_37.9742_-121.9348_55_180.csv)

New Loadshape.SFO_38.0111_-121.9348_25_135 npts= 35040 interval=0.25 mult = (file=../../../../../profiles/SFO_38.0111_-121.9348_25_135.csv)

New Loadshape.SFO_37.9742_-121.9348_45_90 npts= 35040 interval=0.25 mult = (file=../../../../../profiles/SFO_37.9742_-121.9348_45_90.csv)

New Loadshape.SFO_38.0111_-121.9348_35_225 npts= 35040 interval=0.25 mult = (file=../../../../../profiles/SFO_38.0111_-121.9348_35_225.csv)

New Loadshape.SFO_38.0111_-121.9348_25_180 npts= 35040 interval=0.25 mult = (file=../../../../../profiles/SFO_38.0111_-121.9348_25_180.csv)

New Loadshape.SFO_38.0111_-121.9348_15_225 npts= 35040 interval=0.25 mult = (file=../../../../../profiles/SFO_38.0111_-121.9348_15_225.csv)

New Loadshape.SFO_38.0111_-121.9348_25_90 npts= 35040 interval=0.25 mult = (file=../../../../../profiles/SFO_38.0111_-121.9348_25_90.csv)

New Loadshape.SFO_38.0111_-121.9348_45_270 npts= 35040 interval=0.25 mult = (file=../../../../../profiles/SFO_38.0111_-121.9348_45_270.csv)

New Loadshape.SFO_37.9742_-121.9348_45_180 npts= 35040 interval=0.25 mult = (file=../../../../../profiles/SFO_37.9742_-121.9348_45_180.csv)

New Loadshape.SFO_38.0111_-121.9348_15_90 npts= 35040 interval=0.25 mult = (file=../../../../../profiles/SFO_38.0111_-121.9348_15_90.csv)

New Loadshape.SFO_38.0111_-121.9348_35_180 npts= 35040 interval=0.25 mult = (file=../../../../../profiles/SFO_38.0111_-121.9348_35_180.csv)

New Loadshape.SFO_38.0111_-121.9348_15_270 npts= 35040 interval=0.25 mult = (file=../../../../../profiles/SFO_38.0111_-121.9348_15_270.csv)

New Loadshape.SFO_38.0111_-121.9348_25_225 npts= 35040 interval=0.25 mult = (file=../../../../../profiles/SFO_38.0111_-121.9348_25_225.csv)

New Loadshape.SFO_38.0111_-121.9348_35_270 npts= 35040 interval=0.25 mult = (file=../../../../../profiles/SFO_38.0111_-121.9348_35_270.csv)

New Loadshape.SFO_38.0111_-121.9348_45_180 npts= 35040 interval=0.25 mult = (file=../../../../../profiles/SFO_38.0111_-121.9348_45_180.csv)

New Loadshape.SFO_38.0111_-121.9348_45_225 npts= 35040 interval=0.25 mult = (file=../../../../../profiles/SFO_38.0111_-121.9348_45_225.csv)

New Loadshape.SFO_38.0111_-121.9348_15_135 npts= 35040 interval=0.25 mult = (file=../../../../../profiles/SFO_38.0111_-121.9348_15_135.csv)

New Loadshape.res_kw_7225_pu npts= 35040 interval=0.25 mult = (file=../../../../../profiles/res_kw_7225_pu.csv) qmult = (file=../../../../../profiles/res_kvar_7225_pu.csv)

New Loadshape.res_kw_2255_pu npts= 35040 interval=0.25 mult = (file=../../../../../profiles/res_kw_2255_pu.csv) qmult = (file=../../../../../profiles/res_kvar_2255_pu.csv)

New Loadshape.res_kw_7717_pu npts= 35040 interval=0.25 mult = (file=../../../../../profiles/res_kw_7717_pu.csv) qmult = (file=../../../../../profiles/res_kvar_7717_pu.csv)

New Loadshape.res_kw_6607_pu npts= 35040 interval=0.25 mult = (file=../../../../../profiles/res_kw_6607_pu.csv) qmult = (file=../../../../../profiles/res_kvar_6607_pu.csv)

New Loadshape.res_kw_12610_pu npts= 35040 interval=0.25 mult = (file=../../../../../profiles/res_kw_12610_pu.csv) qmult = (file=../../../../../profiles/res_kvar_12610_pu.csv)

New Loadshape.res_kw_3954_pu npts= 35040 interval=0.25 mult = (file=../../../../../profiles/res_kw_3954_pu.csv) qmult = (file=../../../../../profiles/res_kvar_3954_pu.csv)

New Loadshape.res_kw_6975_pu npts= 35040 interval=0.25 mult = (file=../../../../../profiles/res_kw_6975_pu.csv) qmult = (file=../../../../../profiles/res_kvar_6975_pu.csv)

New Loadshape.res_kw_4402_pu npts= 35040 interval=0.25 mult = (file=../../../../../profiles/res_kw_4402_pu.csv) qmult = (file=../../../../../profiles/res_kvar_4402_pu.csv)

New Loadshape.res_kw_9945_pu npts= 35040 interval=0.25 mult = (file=../../../../../profiles/res_kw_9945_pu.csv) qmult = (file=../../../../../profiles/res_kvar_9945_pu.csv)

New Loadshape.res_kw_5006_pu npts= 35040 interval=0.25 mult = (file=../../../../../profiles/res_kw_5006_pu.csv) qmult = (file=../../../../../profiles/res_kvar_5006_pu.csv)

New Loadshape.res_kw_10915_pu npts= 35040 interval=0.25 mult = (file=../../../../../profiles/res_kw_10915_pu.csv) qmult = (file=../../../../../profiles/res_kvar_10915_pu.csv)

New Loadshape.res_kw_7476_pu npts= 35040 interval=0.25 mult = (file=../../../../../profiles/res_kw_7476_pu.csv) qmult = (file=../../../../../profiles/res_kvar_7476_pu.csv)

New Loadshape.res_kw_14077_pu npts= 35040 interval=0.25 mult = (file=../../../../../profiles/res_kw_14077_pu.csv) qmult = (file=../../../../../profiles/res_kvar_14077_pu.csv)

New Loadshape.res_kw_6317_pu npts= 35040 interval=0.25 mult = (file=../../../../../profiles/res_kw_6317_pu.csv) qmult = (file=../../../../../profiles/res_kvar_6317_pu.csv)

New Loadshape.res_kw_7616_pu npts= 35040 interval=0.25 mult = (file=../../../../../profiles/res_kw_7616_pu.csv) qmult = (file=../../../../../profiles/res_kvar_7616_pu.csv)

New Loadshape.res_kw_10595_pu npts= 35040 interval=0.25 mult = (file=../../../../../profiles/res_kw_10595_pu.csv) qmult = (file=../../../../../profiles/res_kvar_10595_pu.csv)

New Loadshape.res_kw_14862_pu npts= 35040 interval=0.25 mult = (file=../../../../../profiles/res_kw_14862_pu.csv) qmult = (file=../../../../../profiles/res_kvar_14862_pu.csv)

New Loadshape.res_kw_3219_pu npts= 35040 interval=0.25 mult = (file=../../../../../profiles/res_kw_3219_pu.csv) qmult = (file=../../../../../profiles/res_kvar_3219_pu.csv)

New Loadshape.res_kw_14135_pu npts= 35040 interval=0.25 mult = (file=../../../../../profiles/res_kw_14135_pu.csv) qmult = (file=../../../../../profiles/res_kvar_14135_pu.csv)

New Loadshape.res_kw_11798_pu npts= 35040 interval=0.25 mult = (file=../../../../../profiles/res_kw_11798_pu.csv) qmult = (file=../../../../../profiles/res_kvar_11798_pu.csv)

New Loadshape.res_kw_7591_pu npts= 35040 interval=0.25 mult = (file=../../../../../profiles/res_kw_7591_pu.csv) qmult = (file=../../../../../profiles/res_kvar_7591_pu.csv)

New Loadshape.res_kw_13175_pu npts= 35040 interval=0.25 mult = (file=../../../../../profiles/res_kw_13175_pu.csv) qmult = (file=../../../../../profiles/res_kvar_13175_pu.csv)

New Loadshape.res_kw_8267_pu npts= 35040 interval=0.25 mult = (file=../../../../../profiles/res_kw_8267_pu.csv) qmult = (file=../../../../../profiles/res_kvar_8267_pu.csv)

New Loadshape.res_kw_14085_pu npts= 35040 interval=0.25 mult = (file=../../../../../profiles/res_kw_14085_pu.csv) qmult = (file=../../../../../profiles/res_kvar_14085_pu.csv)

New Loadshape.res_kw_11346_pu npts= 35040 interval=0.25 mult = (file=../../../../../profiles/res_kw_11346_pu.csv) qmult = (file=../../../../../profiles/res_kvar_11346_pu.csv)

New Loadshape.res_kw_1616_pu npts= 35040 interval=0.25 mult = (file=../../../../../profiles/res_kw_1616_pu.csv) qmult = (file=../../../../../profiles/res_kvar_1616_pu.csv)

New Loadshape.res_kw_9331_pu npts= 35040 interval=0.25 mult = (file=../../../../../profiles/res_kw_9331_pu.csv) qmult = (file=../../../../../profiles/res_kvar_9331_pu.csv)

New Loadshape.res_kw_4496_pu npts= 35040 interval=0.25 mult = (file=../../../../../profiles/res_kw_4496_pu.csv) qmult = (file=../../../../../profiles/res_kvar_4496_pu.csv)

New Loadshape.res_kw_8883_pu npts= 35040 interval=0.25 mult = (file=../../../../../profiles/res_kw_8883_pu.csv) qmult = (file=../../../../../profiles/res_kvar_8883_pu.csv)

New Loadshape.res_kw_5366_pu npts= 35040 interval=0.25 mult = (file=../../../../../profiles/res_kw_5366_pu.csv) qmult = (file=../../../../../profiles/res_kvar_5366_pu.csv)

New Loadshape.res_kw_5610_pu npts= 35040 interval=0.25 mult = (file=../../../../../profiles/res_kw_5610_pu.csv) qmult = (file=../../../../../profiles/res_kvar_5610_pu.csv)

New Loadshape.res_kw_1022_pu npts= 35040 interval=0.25 mult = (file=../../../../../profiles/res_kw_1022_pu.csv) qmult = (file=../../../../../profiles/res_kvar_1022_pu.csv)

New Loadshape.res_kw_6602_pu npts= 35040 interval=0.25 mult = (file=../../../../../profiles/res_kw_6602_pu.csv) qmult = (file=../../../../../profiles/res_kvar_6602_pu.csv)

New Loadshape.res_kw_6872_pu npts= 35040 interval=0.25 mult = (file=../../../../../profiles/res_kw_6872_pu.csv) qmult = (file=../../../../../profiles/res_kvar_6872_pu.csv)

New Loadshape.res_kw_14095_pu npts= 35040 interval=0.25 mult = (file=../../../../../profiles/res_kw_14095_pu.csv) qmult = (file=../../../../../profiles/res_kvar_14095_pu.csv)

New Loadshape.res_kw_9896_pu npts= 35040 interval=0.25 mult = (file=../../../../../profiles/res_kw_9896_pu.csv) qmult = (file=../../../../../profiles/res_kvar_9896_pu.csv)

New Loadshape.res_kw_13091_pu npts= 35040 interval=0.25 mult = (file=../../../../../profiles/res_kw_13091_pu.csv) qmult = (file=../../../../../profiles/res_kvar_13091_pu.csv)

New Loadshape.res_kw_1059_pu npts= 35040 interval=0.25 mult = (file=../../../../../profiles/res_kw_1059_pu.csv) qmult = (file=../../../../../profiles/res_kvar_1059_pu.csv)

New Loadshape.res_kw_1517_pu npts= 35040 interval=0.25 mult = (file=../../../../../profiles/res_kw_1517_pu.csv) qmult = (file=../../../../../profiles/res_kvar_1517_pu.csv)

New Loadshape.res_kw_13140_pu npts= 35040 interval=0.25 mult = (file=../../../../../profiles/res_kw_13140_pu.csv) qmult = (file=../../../../../profiles/res_kvar_13140_pu.csv)

New Loadshape.res_kw_13840_pu npts= 35040 interval=0.25 mult = (file=../../../../../profiles/res_kw_13840_pu.csv) qmult = (file=../../../../../profiles/res_kvar_13840_pu.csv)

New Loadshape.res_kw_8478_pu npts= 35040 interval=0.25 mult = (file=../../../../../profiles/res_kw_8478_pu.csv) qmult = (file=../../../../../profiles/res_kvar_8478_pu.csv)

New Loadshape.res_kw_10487_pu npts= 35040 interval=0.25 mult = (file=../../../../../profiles/res_kw_10487_pu.csv) qmult = (file=../../../../../profiles/res_kvar_10487_pu.csv)

New Loadshape.res_kw_9881_pu npts= 35040 interval=0.25 mult = (file=../../../../../profiles/res_kw_9881_pu.csv) qmult = (file=../../../../../profiles/res_kvar_9881_pu.csv)

New Loadshape.res_kw_13015_pu npts= 35040 interval=0.25 mult = (file=../../../../../profiles/res_kw_13015_pu.csv) qmult = (file=../../../../../profiles/res_kvar_13015_pu.csv)

New Loadshape.res_kw_2400_pu npts= 35040 interval=0.25 mult = (file=../../../../../profiles/res_kw_2400_pu.csv) qmult = (file=../../../../../profiles/res_kvar_2400_pu.csv)

New Loadshape.res_kw_11802_pu npts= 35040 interval=0.25 mult = (file=../../../../../profiles/res_kw_11802_pu.csv) qmult = (file=../../../../../profiles/res_kvar_11802_pu.csv)

New Loadshape.res_kw_13554_pu npts= 35040 interval=0.25 mult = (file=../../../../../profiles/res_kw_13554_pu.csv) qmult = (file=../../../../../profiles/res_kvar_13554_pu.csv)

New Loadshape.res_kw_8509_pu npts= 35040 interval=0.25 mult = (file=../../../../../profiles/res_kw_8509_pu.csv) qmult = (file=../../../../../profiles/res_kvar_8509_pu.csv)

New Loadshape.res_kw_5091_pu npts= 35040 interval=0.25 mult = (file=../../../../../profiles/res_kw_5091_pu.csv) qmult = (file=../../../../../profiles/res_kvar_5091_pu.csv)

New Loadshape.res_kw_10452_pu npts= 35040 interval=0.25 mult = (file=../../../../../profiles/res_kw_10452_pu.csv) qmult = (file=../../../../../profiles/res_kvar_10452_pu.csv)

New Loadshape.res_kw_3376_pu npts= 35040 interval=0.25 mult = (file=../../../../../profiles/res_kw_3376_pu.csv) qmult = (file=../../../../../profiles/res_kvar_3376_pu.csv)

New Loadshape.res_kw_1140_pu npts= 35040 interval=0.25 mult = (file=../../../../../profiles/res_kw_1140_pu.csv) qmult = (file=../../../../../profiles/res_kvar_1140_pu.csv)

New Loadshape.res_kw_12525_pu npts= 35040 interval=0.25 mult = (file=../../../../../profiles/res_kw_12525_pu.csv) qmult = (file=../../../../../profiles/res_kvar_12525_pu.csv)

New Loadshape.res_kw_4976_pu npts= 35040 interval=0.25 mult = (file=../../../../../profiles/res_kw_4976_pu.csv) qmult = (file=../../../../../profiles/res_kvar_4976_pu.csv)

New Loadshape.res_kw_14711_pu npts= 35040 interval=0.25 mult = (file=../../../../../profiles/res_kw_14711_pu.csv) qmult = (file=../../../../../profiles/res_kvar_14711_pu.csv)

New Loadshape.res_kw_2763_pu npts= 35040 interval=0.25 mult = (file=../../../../../profiles/res_kw_2763_pu.csv) qmult = (file=../../../../../profiles/res_kvar_2763_pu.csv)

New Loadshape.res_kw_5155_pu npts= 35040 interval=0.25 mult = (file=../../../../../profiles/res_kw_5155_pu.csv) qmult = (file=../../../../../profiles/res_kvar_5155_pu.csv)

New Loadshape.res_kw_845_pu npts= 35040 interval=0.25 mult = (file=../../../../../profiles/res_kw_845_pu.csv) qmult = (file=../../../../../profiles/res_kvar_845_pu.csv)

New Loadshape.res_kw_6230_pu npts= 35040 interval=0.25 mult = (file=../../../../../profiles/res_kw_6230_pu.csv) qmult = (file=../../../../../profiles/res_kvar_6230_pu.csv)

New Loadshape.res_kw_14470_pu npts= 35040 interval=0.25 mult = (file=../../../../../profiles/res_kw_14470_pu.csv) qmult = (file=../../../../../profiles/res_kvar_14470_pu.csv)

New Loadshape.res_kw_4011_pu npts= 35040 interval=0.25 mult = (file=../../../../../profiles/res_kw_4011_pu.csv) qmult = (file=../../../../../profiles/res_kvar_4011_pu.csv)

New Loadshape.res_kw_13589_pu npts= 35040 interval=0.25 mult = (file=../../../../../profiles/res_kw_13589_pu.csv) qmult = (file=../../../../../profiles/res_kvar_13589_pu.csv)

New Loadshape.res_kw_6255_pu npts= 35040 interval=0.25 mult = (file=../../../../../profiles/res_kw_6255_pu.csv) qmult = (file=../../../../../profiles/res_kvar_6255_pu.csv)

New Loadshape.res_kw_11842_pu npts= 35040 interval=0.25 mult = (file=../../../../../profiles/res_kw_11842_pu.csv) qmult = (file=../../../../../profiles/res_kvar_11842_pu.csv)

New Loadshape.res_kw_1335_pu npts= 35040 interval=0.25 mult = (file=../../../../../profiles/res_kw_1335_pu.csv) qmult = (file=../../../../../profiles/res_kvar_1335_pu.csv)

New Loadshape.res_kw_12125_pu npts= 35040 interval=0.25 mult = (file=../../../../../profiles/res_kw_12125_pu.csv) qmult = (file=../../../../../profiles/res_kvar_12125_pu.csv)

New Loadshape.res_kw_14289_pu npts= 35040 interval=0.25 mult = (file=../../../../../profiles/res_kw_14289_pu.csv) qmult = (file=../../../../../profiles/res_kvar_14289_pu.csv)

New Loadshape.res_kw_3580_pu npts= 35040 interval=0.25 mult = (file=../../../../../profiles/res_kw_3580_pu.csv) qmult = (file=../../../../../profiles/res_kvar_3580_pu.csv)

New Loadshape.res_kw_2868_pu npts= 35040 interval=0.25 mult = (file=../../../../../profiles/res_kw_2868_pu.csv) qmult = (file=../../../../../profiles/res_kvar_2868_pu.csv)

New Loadshape.res_kw_12651_pu npts= 35040 interval=0.25 mult = (file=../../../../../profiles/res_kw_12651_pu.csv) qmult = (file=../../../../../profiles/res_kvar_12651_pu.csv)

New Loadshape.res_kw_1389_pu npts= 35040 interval=0.25 mult = (file=../../../../../profiles/res_kw_1389_pu.csv) qmult = (file=../../../../../profiles/res_kvar_1389_pu.csv)

New Loadshape.res_kw_11008_pu npts= 35040 interval=0.25 mult = (file=../../../../../profiles/res_kw_11008_pu.csv) qmult = (file=../../../../../profiles/res_kvar_11008_pu.csv)

New Loadshape.res_kw_14529_pu npts= 35040 interval=0.25 mult = (file=../../../../../profiles/res_kw_14529_pu.csv) qmult = (file=../../../../../profiles/res_kvar_14529_pu.csv)

New Loadshape.res_kw_11220_pu npts= 35040 interval=0.25 mult = (file=../../../../../profiles/res_kw_11220_pu.csv) qmult = (file=../../../../../profiles/res_kvar_11220_pu.csv)

New Loadshape.res_kw_2196_pu npts= 35040 interval=0.25 mult = (file=../../../../../profiles/res_kw_2196_pu.csv) qmult = (file=../../../../../profiles/res_kvar_2196_pu.csv)

New Loadshape.res_kw_4783_pu npts= 35040 interval=0.25 mult = (file=../../../../../profiles/res_kw_4783_pu.csv) qmult = (file=../../../../../profiles/res_kvar_4783_pu.csv)

New Loadshape.res_kw_9093_pu npts= 35040 interval=0.25 mult = (file=../../../../../profiles/res_kw_9093_pu.csv) qmult = (file=../../../../../profiles/res_kvar_9093_pu.csv)

New Loadshape.res_kw_10142_pu npts= 35040 interval=0.25 mult = (file=../../../../../profiles/res_kw_10142_pu.csv) qmult = (file=../../../../../profiles/res_kvar_10142_pu.csv)

New Loadshape.res_kw_3592_pu npts= 35040 interval=0.25 mult = (file=../../../../../profiles/res_kw_3592_pu.csv) qmult = (file=../../../../../profiles/res_kvar_3592_pu.csv)

New Loadshape.res_kw_1657_pu npts= 35040 interval=0.25 mult = (file=../../../../../profiles/res_kw_1657_pu.csv) qmult = (file=../../../../../profiles/res_kvar_1657_pu.csv)

New Loadshape.res_kw_12713_pu npts= 35040 interval=0.25 mult = (file=../../../../../profiles/res_kw_12713_pu.csv) qmult = (file=../../../../../profiles/res_kvar_12713_pu.csv)

New Loadshape.res_kw_8333_pu npts= 35040 interval=0.25 mult = (file=../../../../../profiles/res_kw_8333_pu.csv) qmult = (file=../../../../../profiles/res_kvar_8333_pu.csv)

New Loadshape.res_kw_9706_pu npts= 35040 interval=0.25 mult = (file=../../../../../profiles/res_kw_9706_pu.csv) qmult = (file=../../../../../profiles/res_kvar_9706_pu.csv)

New Loadshape.res_kw_13338_pu npts= 35040 interval=0.25 mult = (file=../../../../../profiles/res_kw_13338_pu.csv) qmult = (file=../../../../../profiles/res_kvar_13338_pu.csv)

New Loadshape.res_kw_10803_pu npts= 35040 interval=0.25 mult = (file=../../../../../profiles/res_kw_10803_pu.csv) qmult = (file=../../../../../profiles/res_kvar_10803_pu.csv)

New Loadshape.res_kw_9454_pu npts= 35040 interval=0.25 mult = (file=../../../../../profiles/res_kw_9454_pu.csv) qmult = (file=../../../../../profiles/res_kvar_9454_pu.csv)

New Loadshape.res_kw_3929_pu npts= 35040 interval=0.25 mult = (file=../../../../../profiles/res_kw_3929_pu.csv) qmult = (file=../../../../../profiles/res_kvar_3929_pu.csv)

New Loadshape.res_kw_8073_pu npts= 35040 interval=0.25 mult = (file=../../../../../profiles/res_kw_8073_pu.csv) qmult = (file=../../../../../profiles/res_kvar_8073_pu.csv)

New Loadshape.res_kw_532_pu npts= 35040 interval=0.25 mult = (file=../../../../../profiles/res_kw_532_pu.csv) qmult = (file=../../../../../profiles/res_kvar_532_pu.csv)

New Loadshape.res_kw_3510_pu npts= 35040 interval=0.25 mult = (file=../../../../../profiles/res_kw_3510_pu.csv) qmult = (file=../../../../../profiles/res_kvar_3510_pu.csv)

New Loadshape.res_kw_610_pu npts= 35040 interval=0.25 mult = (file=../../../../../profiles/res_kw_610_pu.csv) qmult = (file=../../../../../profiles/res_kvar_610_pu.csv)

New Loadshape.res_kw_7885_pu npts= 35040 interval=0.25 mult = (file=../../../../../profiles/res_kw_7885_pu.csv) qmult = (file=../../../../../profiles/res_kvar_7885_pu.csv)

New Loadshape.res_kw_48_pu npts= 35040 interval=0.25 mult = (file=../../../../../profiles/res_kw_48_pu.csv) qmult = (file=../../../../../profiles/res_kvar_48_pu.csv)

New Loadshape.res_kw_5417_pu npts= 35040 interval=0.25 mult = (file=../../../../../profiles/res_kw_5417_pu.csv) qmult = (file=../../../../../profiles/res_kvar_5417_pu.csv)

New Loadshape.res_kw_3038_pu npts= 35040 interval=0.25 mult = (file=../../../../../profiles/res_kw_3038_pu.csv) qmult = (file=../../../../../profiles/res_kvar_3038_pu.csv)

New Loadshape.res_kw_4856_pu npts= 35040 interval=0.25 mult = (file=../../../../../profiles/res_kw_4856_pu.csv) qmult = (file=../../../../../profiles/res_kvar_4856_pu.csv)

New Loadshape.res_kw_12841_pu npts= 35040 interval=0.25 mult = (file=../../../../../profiles/res_kw_12841_pu.csv) qmult = (file=../../../../../profiles/res_kvar_12841_pu.csv)

New Loadshape.res_kw_13594_pu npts= 35040 interval=0.25 mult = (file=../../../../../profiles/res_kw_13594_pu.csv) qmult = (file=../../../../../profiles/res_kvar_13594_pu.csv)

New Loadshape.res_kw_7506_pu npts= 35040 interval=0.25 mult = (file=../../../../../profiles/res_kw_7506_pu.csv) qmult = (file=../../../../../profiles/res_kvar_7506_pu.csv)

New Loadshape.res_kw_2514_pu npts= 35040 interval=0.25 mult = (file=../../../../../profiles/res_kw_2514_pu.csv) qmult = (file=../../../../../profiles/res_kvar_2514_pu.csv)

New Loadshape.res_kw_7012_pu npts= 35040 interval=0.25 mult = (file=../../../../../profiles/res_kw_7012_pu.csv) qmult = (file=../../../../../profiles/res_kvar_7012_pu.csv)

New Loadshape.res_kw_8192_pu npts= 35040 interval=0.25 mult = (file=../../../../../profiles/res_kw_8192_pu.csv) qmult = (file=../../../../../profiles/res_kvar_8192_pu.csv)

New Loadshape.res_kw_7181_pu npts= 35040 interval=0.25 mult = (file=../../../../../profiles/res_kw_7181_pu.csv) qmult = (file=../../../../../profiles/res_kvar_7181_pu.csv)

New Loadshape.res_kw_13866_pu npts= 35040 interval=0.25 mult = (file=../../../../../profiles/res_kw_13866_pu.csv) qmult = (file=../../../../../profiles/res_kvar_13866_pu.csv)

New Loadshape.res_kw_4922_pu npts= 35040 interval=0.25 mult = (file=../../../../../profiles/res_kw_4922_pu.csv) qmult = (file=../../../../../profiles/res_kvar_4922_pu.csv)

New Loadshape.res_kw_839_pu npts= 35040 interval=0.25 mult = (file=../../../../../profiles/res_kw_839_pu.csv) qmult = (file=../../../../../profiles/res_kvar_839_pu.csv)

New Loadshape.res_kw_13271_pu npts= 35040 interval=0.25 mult = (file=../../../../../profiles/res_kw_13271_pu.csv) qmult = (file=../../../../../profiles/res_kvar_13271_pu.csv)

New Loadshape.res_kw_11306_pu npts= 35040 interval=0.25 mult = (file=../../../../../profiles/res_kw_11306_pu.csv) qmult = (file=../../../../../profiles/res_kvar_11306_pu.csv)

New Loadshape.res_kw_2553_pu npts= 35040 interval=0.25 mult = (file=../../../../../profiles/res_kw_2553_pu.csv) qmult = (file=../../../../../profiles/res_kvar_2553_pu.csv)

New Loadshape.res_kw_710_pu npts= 35040 interval=0.25 mult = (file=../../../../../profiles/res_kw_710_pu.csv) qmult = (file=../../../../../profiles/res_kvar_710_pu.csv)

New Loadshape.res_kw_12755_pu npts= 35040 interval=0.25 mult = (file=../../../../../profiles/res_kw_12755_pu.csv) qmult = (file=../../../../../profiles/res_kvar_12755_pu.csv)

New Loadshape.res_kw_2021_pu npts= 35040 interval=0.25 mult = (file=../../../../../profiles/res_kw_2021_pu.csv) qmult = (file=../../../../../profiles/res_kvar_2021_pu.csv)

New Loadshape.res_kw_14649_pu npts= 35040 interval=0.25 mult = (file=../../../../../profiles/res_kw_14649_pu.csv) qmult = (file=../../../../../profiles/res_kvar_14649_pu.csv)

New Loadshape.res_kw_10386_pu npts= 35040 interval=0.25 mult = (file=../../../../../profiles/res_kw_10386_pu.csv) qmult = (file=../../../../../profiles/res_kvar_10386_pu.csv)

New Loadshape.res_kw_2345_pu npts= 35040 interval=0.25 mult = (file=../../../../../profiles/res_kw_2345_pu.csv) qmult = (file=../../../../../profiles/res_kvar_2345_pu.csv)

New Loadshape.res_kw_5722_pu npts= 35040 interval=0.25 mult = (file=../../../../../profiles/res_kw_5722_pu.csv) qmult = (file=../../../../../profiles/res_kvar_5722_pu.csv)

New Loadshape.res_kw_2223_pu npts= 35040 interval=0.25 mult = (file=../../../../../profiles/res_kw_2223_pu.csv) qmult = (file=../../../../../profiles/res_kvar_2223_pu.csv)

New Loadshape.res_kw_200_pu npts= 35040 interval=0.25 mult = (file=../../../../../profiles/res_kw_200_pu.csv) qmult = (file=../../../../../profiles/res_kvar_200_pu.csv)

New Loadshape.res_kw_10838_pu npts= 35040 interval=0.25 mult = (file=../../../../../profiles/res_kw_10838_pu.csv) qmult = (file=../../../../../profiles/res_kvar_10838_pu.csv)

New Loadshape.res_kw_2803_pu npts= 35040 interval=0.25 mult = (file=../../../../../profiles/res_kw_2803_pu.csv) qmult = (file=../../../../../profiles/res_kvar_2803_pu.csv)

New Loadshape.res_kw_680_pu npts= 35040 interval=0.25 mult = (file=../../../../../profiles/res_kw_680_pu.csv) qmult = (file=../../../../../profiles/res_kvar_680_pu.csv)

New Loadshape.res_kw_6166_pu npts= 35040 interval=0.25 mult = (file=../../../../../profiles/res_kw_6166_pu.csv) qmult = (file=../../../../../profiles/res_kvar_6166_pu.csv)

New Loadshape.res_kw_5640_pu npts= 35040 interval=0.25 mult = (file=../../../../../profiles/res_kw_5640_pu.csv) qmult = (file=../../../../../profiles/res_kvar_5640_pu.csv)

New Loadshape.res_kw_1459_pu npts= 35040 interval=0.25 mult = (file=../../../../../profiles/res_kw_1459_pu.csv) qmult = (file=../../../../../profiles/res_kvar_1459_pu.csv)

New Loadshape.res_kw_13532_pu npts= 35040 interval=0.25 mult = (file=../../../../../profiles/res_kw_13532_pu.csv) qmult = (file=../../../../../profiles/res_kvar_13532_pu.csv)

New Loadshape.res_kw_9050_pu npts= 35040 interval=0.25 mult = (file=../../../../../profiles/res_kw_9050_pu.csv) qmult = (file=../../../../../profiles/res_kvar_9050_pu.csv)

New Loadshape.res_kw_8466_pu npts= 35040 interval=0.25 mult = (file=../../../../../profiles/res_kw_8466_pu.csv) qmult = (file=../../../../../profiles/res_kvar_8466_pu.csv)

New Loadshape.res_kw_1829_pu npts= 35040 interval=0.25 mult = (file=../../../../../profiles/res_kw_1829_pu.csv) qmult = (file=../../../../../profiles/res_kvar_1829_pu.csv)

New Loadshape.res_kw_12803_pu npts= 35040 interval=0.25 mult = (file=../../../../../profiles/res_kw_12803_pu.csv) qmult = (file=../../../../../profiles/res_kvar_12803_pu.csv)

New Loadshape.res_kw_6349_pu npts= 35040 interval=0.25 mult = (file=../../../../../profiles/res_kw_6349_pu.csv) qmult = (file=../../../../../profiles/res_kvar_6349_pu.csv)

New Loadshape.res_kw_4108_pu npts= 35040 interval=0.25 mult = (file=../../../../../profiles/res_kw_4108_pu.csv) qmult = (file=../../../../../profiles/res_kvar_4108_pu.csv)

New Loadshape.res_kw_7029_pu npts= 35040 interval=0.25 mult = (file=../../../../../profiles/res_kw_7029_pu.csv) qmult = (file=../../../../../profiles/res_kvar_7029_pu.csv)

New Loadshape.res_kw_119_pu npts= 35040 interval=0.25 mult = (file=../../../../../profiles/res_kw_119_pu.csv) qmult = (file=../../../../../profiles/res_kvar_119_pu.csv)

New Loadshape.res_kw_2240_pu npts= 35040 interval=0.25 mult = (file=../../../../../profiles/res_kw_2240_pu.csv) qmult = (file=../../../../../profiles/res_kvar_2240_pu.csv)

New Loadshape.res_kw_12348_pu npts= 35040 interval=0.25 mult = (file=../../../../../profiles/res_kw_12348_pu.csv) qmult = (file=../../../../../profiles/res_kvar_12348_pu.csv)

New Loadshape.res_kw_14615_pu npts= 35040 interval=0.25 mult = (file=../../../../../profiles/res_kw_14615_pu.csv) qmult = (file=../../../../../profiles/res_kvar_14615_pu.csv)

New Loadshape.res_kw_9131_pu npts= 35040 interval=0.25 mult = (file=../../../../../profiles/res_kw_9131_pu.csv) qmult = (file=../../../../../profiles/res_kvar_9131_pu.csv)

New Loadshape.res_kw_1753_pu npts= 35040 interval=0.25 mult = (file=../../../../../profiles/res_kw_1753_pu.csv) qmult = (file=../../../../../profiles/res_kvar_1753_pu.csv)

New Loadshape.res_kw_4734_pu npts= 35040 interval=0.25 mult = (file=../../../../../profiles/res_kw_4734_pu.csv) qmult = (file=../../../../../profiles/res_kvar_4734_pu.csv)
